 
data_Pb3I8MAH
 
_audit_creation_method            SHELXL-2014/6
_chemical_name_systematic         ?
_chemical_name_common             ?
_chemical_melting_point           ?
_chemical_formula_moiety          
 'I8 Pb3, 2(C3 H7 N O), 2(C H6 N)' 
_chemical_formula_sum
 'C8 H26 I8 N4 O2 Pb3' 
_chemical_formula_weight          1847.10

loop_
 _atom_type_symbol
 _atom_type_description
 _atom_type_scat_dispersion_real
 _atom_type_scat_dispersion_imag
 _atom_type_scat_source
 'C'  'C'   0.0070   0.0030
 'International Tables Vol C Tables 4.2.6.8 and 6.1.1.4'
 'H'  'H'   0.0000   0.0000
 'International Tables Vol C Tables 4.2.6.8 and 6.1.1.4'
 'N'  'N'   0.0130   0.0070
 'International Tables Vol C Tables 4.2.6.8 and 6.1.1.4'
 'O'  'O'   0.0210   0.0120
 'International Tables Vol C Tables 4.2.6.8 and 6.1.1.4'
 'I'  'I'  -0.0340   3.1360
 'International Tables Vol C Tables 4.2.6.8 and 6.1.1.4'
 'Pb'  'Pb'  -9.9000   4.0740
 'International Tables Vol C Tables 4.2.6.8 and 6.1.1.4'
 
_space_group_crystal_system       orthorhombic
_space_group_IT_number            58
_space_group_name_H-M_alt         'P n n m'
_space_group_name_Hall            '-P 2 2n'
 
_shelx_space_group_comment
;
The symmetry employed for this shelxl refinement is uniquely defined
by the following loop, which should always be used as a source of
symmetry information in preference to the above space-group names.
They are only intended as comments.
;
 
loop_
 _space_group_symop_operation_xyz
 'x, y, z'
 '-x, -y, z'
 '-x+1/2, y+1/2, -z+1/2'
 'x+1/2, -y+1/2, -z+1/2'
 '-x, -y, -z'
 'x, y, -z'
 'x-1/2, -y-1/2, z-1/2'
 '-x-1/2, y-1/2, z-1/2'
 
_cell_length_a                    17.165(4)
_cell_length_b                    21.955(4)
_cell_length_c                    4.5549(9)
_cell_angle_alpha                 90
_cell_angle_beta                  90
_cell_angle_gamma                 90
_cell_volume                      1716.6(6)
_cell_formula_units_Z             2
_cell_measurement_temperature     100(2)
_cell_measurement_reflns_used     500
_cell_measurement_theta_min       3.5
_cell_measurement_theta_max       35.0
 
_exptl_crystal_description        needle
_exptl_crystal_colour             colourless
_exptl_crystal_density_meas       ?
_exptl_crystal_density_method     ?
_exptl_crystal_density_diffrn     3.574          
_exptl_crystal_F_000              1576
_exptl_transmission_factor_min    ?
_exptl_transmission_factor_max    ?
_exptl_crystal_size_max           0.25
_exptl_crystal_size_mid           0.06
_exptl_crystal_size_min           0.05
_exptl_absorpt_coefficient_mu     24.746
_shelx_estimated_absorpt_T_min    0.062
_shelx_estimated_absorpt_T_max    0.367
_exptl_absorpt_correction_type    'multi-scan'         
_exptl_absorpt_correction_T_min   0.060                
_exptl_absorpt_correction_T_max   0.240                
_exptl_absorpt_process_details    'Scala (Evans, 2006)'
_exptl_absorpt_special_details    ?                    
_diffrn_ambient_temperature       100(2)               
_diffrn_radiation_wavelength      0.96990              
_diffrn_radiation_type            synchrotron          
_diffrn_source                    ?                    
_diffrn_measurement_device_type   'Rayonix SX165 CCD'  
_diffrn_measurement_method        '/f scan'            
_diffrn_detector_area_resol_mean  ?
_diffrn_reflns_number             7757
_diffrn_reflns_av_unetI/netI      0.2119
_diffrn_reflns_av_R_equivalents   0.0910
_diffrn_reflns_limit_h_min        -21
_diffrn_reflns_limit_h_max        21
_diffrn_reflns_limit_k_min        -25
_diffrn_reflns_limit_k_max        27
_diffrn_reflns_limit_l_min        -5
_diffrn_reflns_limit_l_max        5
_diffrn_reflns_theta_min          3.478
_diffrn_reflns_theta_max          38.446
_diffrn_reflns_theta_full         35.587
_diffrn_measured_fraction_theta_max   0.957
_diffrn_measured_fraction_theta_full  0.973
_diffrn_reflns_Laue_measured_fraction_max    0.957
_diffrn_reflns_Laue_measured_fraction_full   0.973
_diffrn_reflns_point_group_measured_fraction_max   0.957
_diffrn_reflns_point_group_measured_fraction_full  0.973
_reflns_number_total              2046
_reflns_number_gt                 1397
_reflns_threshold_expression      'I > 2\s(I)'
_reflns_Friedel_coverage          0.000
_reflns_Friedel_fraction_max      .
_reflns_Friedel_fraction_full     .
 
_reflns_special_details
;
 Reflections were merged by SHELXL according to the crystal
 class for the calculation of statistics and refinement.
 
 _reflns_Friedel_fraction is defined as the number of unique
 Friedel pairs measured divided by the number that would be
 possible theoretically, ignoring centric projections and
 systematic absences.
;
 
_computing_data_collection        'Marccd (Doyle, 2011)'         
_computing_cell_refinement        'iMosflm (Battye et al., 2011)'
_computing_data_reduction         'iMosflm'                      
_computing_structure_solution     'SHELXT (Sheldrick, 2015)'     
_computing_structure_refinement   'SHELXL (Sheldrick, 2015)'     
_computing_molecular_graphics     'SHELXTL (Sheldrick, 2015)'    
_computing_publication_material   'SHELXTL'                      
_refine_special_details           ?
_refine_ls_structure_factor_coef  Fsqd
_refine_ls_matrix_type            full
_refine_ls_weighting_scheme       calc
_refine_ls_weighting_details
'w=1/[\s^2^(Fo^2^)] where P=(Fo^2^+2Fc^2^)/3'
_atom_sites_solution_primary      difmap
_atom_sites_solution_secondary    difmap
_atom_sites_solution_hydrogens    mixed
_refine_ls_hydrogen_treatment     constr
_refine_ls_extinction_method      SHELXL
_refine_ls_extinction_coef        0.00067(7)
_refine_ls_extinction_expression
 'Fc^*^=kFc[1+0.001xFc^2^\l^3^/sin(2\q)]^-1/4^'
_refine_ls_number_reflns          2046
_refine_ls_number_parameters      70
_refine_ls_number_restraints      3
_refine_ls_R_factor_all           0.1193
_refine_ls_R_factor_gt            0.0970
_refine_ls_wR_factor_ref          0.2082
_refine_ls_wR_factor_gt           0.1908
_refine_ls_goodness_of_fit_ref    0.914
_refine_ls_restrained_S_all       0.913
_refine_ls_shift/su_max           0.001
_refine_ls_shift/su_mean          0.000
 
loop_
 _atom_site_label
 _atom_site_type_symbol
 _atom_site_fract_x
 _atom_site_fract_y
 _atom_site_fract_z
 _atom_site_U_iso_or_equiv
 _atom_site_adp_type
 _atom_site_occupancy
 _atom_site_site_symmetry_order  
 _atom_site_calc_flag
 _atom_site_refinement_flags_posn
 _atom_site_refinement_flags_adp
 _atom_site_refinement_flags_occupancy
 _atom_site_disorder_assembly
 _atom_site_disorder_group
Pb1 Pb 0.70752(6) 0.60227(4) 1.0000 0.0326(4) Uani 1 2 d S T P . .
Pb2 Pb 0.5000 0.5000 0.5000 0.0320(5) Uani 1 4 d S T P . .
I1 I 0.83085(9) 0.56609(6) 0.5000 0.0350(5) Uani 1 2 d S T P . .
I2 I 0.74422(9) 0.73737(6) 1.0000 0.0356(5) Uani 1 2 d S T P . .
I3 I 0.57686(8) 0.63381(6) 0.5000 0.0304(4) Uani 1 2 d S T P . .
I4 I 0.37774(9) 0.54045(6) 0.0000 0.0324(5) Uani 1 2 d S T P . .
N1 N 0.4061(13) 0.7773(9) 0.0000 0.044(4) Uani 1 2 d S T P . .
H1A H 0.3560 0.7894 0.0000 0.066 Uiso 1 2 d R U P . .
H1B H 0.4298 0.7923 0.1608 0.066 Uiso 1 1 d R U . . .
C1 C 0.4102(15) 0.7081(10) 0.0000 0.044(4) Uani 1 2 d S T P . .
H1C H 0.4648 0.6951 0.0000 0.066 Uiso 1 2 d R U P . .
H1D H 0.3843 0.6919 0.1753 0.066 Uiso 1 1 d R U . . .
O1 O 0.4989(9) 0.8098(6) 0.5000 0.035(3) Uani 1 2 d S T P . .
N2 N 0.5963(8) 0.8777(6) 0.5000 0.036(5) Uani 1 2 d DS T P . .
C2 C 0.5688(13) 0.8206(6) 0.5000 0.031(5) Uani 1 2 d DS T P . .
H2 H 0.6045 0.7876 0.5000 0.038 Uiso 1 2 calc R U P . .
C3 C 0.6794(9) 0.8895(10) 0.5000 0.057(6) Uani 1 2 d DS T P . .
H3A H 0.6899 0.9334 0.5000 0.086 Uiso 1 2 d R U P . .
H3B H 0.7034 0.8711 0.3261 0.086 Uiso 1 1 d R U . . .
C4 C 0.5450(12) 0.9302(8) 0.5000 0.057(6) Uani 1 2 d DS T P . .
H4A H 0.5747 0.9683 0.5000 0.086 Uiso 1 2 d R U P . .
H4B H 0.5115 0.9287 0.3259 0.086 Uiso 1 1 d R U . . .
 
loop_
 _atom_site_aniso_label
 _atom_site_aniso_U_11
 _atom_site_aniso_U_22
 _atom_site_aniso_U_33
 _atom_site_aniso_U_23
 _atom_site_aniso_U_13
 _atom_site_aniso_U_12
Pb1 0.0295(7) 0.0340(7) 0.0342(8) 0.000 0.000 -0.0030(4)
Pb2 0.0268(9) 0.0343(8) 0.0348(10) 0.000 0.000 -0.0019(6)
I1 0.0306(9) 0.0393(9) 0.0352(10) 0.000 0.000 0.0036(6)
I2 0.0303(10) 0.0374(9) 0.0392(10) 0.000 0.000 -0.0041(6)
I3 0.0255(9) 0.0306(8) 0.0350(9) 0.000 0.000 0.0003(5)
I4 0.0273(9) 0.0321(8) 0.0378(9) 0.000 0.000 0.0007(6)
N1 0.027(10) 0.061(9) 0.044(9) 0.000 0.000 0.001(7)
C1 0.027(10) 0.061(9) 0.044(9) 0.000 0.000 0.001(7)
O1 0.025(9) 0.044(8) 0.036(9) 0.000 0.000 -0.007(7)
N2 0.025(12) 0.040(11) 0.043(11) 0.000 0.000 -0.001(8)
C2 0.022(13) 0.041(12) 0.031(13) 0.000 0.000 0.013(9)
C3 0.016(10) 0.040(10) 0.116(17) 0.000 0.000 -0.001(7)
C4 0.016(10) 0.040(10) 0.116(17) 0.000 0.000 -0.001(7)
 
_geom_special_details
;
 All esds (except the esd in the dihedral angle between two l.s. planes)
 are estimated using the full covariance matrix.  The cell esds are taken
 into account individually in the estimation of esds in distances, angles
 and torsion angles; correlations between esds in cell parameters are only
 used when they are defined by crystal symmetry.  An approximate (isotropic)
 treatment of cell esds is used for estimating esds involving l.s. planes.
;
 
loop_
 _geom_bond_atom_site_label_1
 _geom_bond_atom_site_label_2
 _geom_bond_distance
 _geom_bond_site_symmetry_2
 _geom_bond_publ_flag
Pb1 I2 3.0323(17) . ?
Pb1 I1 3.2092(13) . ?
Pb1 I3 3.2706(14) . ?
Pb2 I3 3.2204(14) . ?
Pb2 I4 3.2217(11) . ?
N1 C1 1.52(3) . ?
N1 H1A 0.9001 . ?
N1 H1B 0.9001 . ?
C1 H1C 0.9800 . ?
C1 H1D 0.9800 . ?
O1 C2 1.22(2) . ?
N2 C2 1.339(3) . ?
N2 C3 1.450(3) . ?
N2 C4 1.450(3) . ?
C2 H2 0.9500 . ?
C3 H3A 0.9801 . ?
C3 H3B 0.9801 . ?
C4 H4A 0.9800 . ?
C4 H4B 0.9800 . ?
 
loop_
 _geom_angle_atom_site_label_1
 _geom_angle_atom_site_label_2
 _geom_angle_atom_site_label_3
 _geom_angle
 _geom_angle_site_symmetry_1
 _geom_angle_site_symmetry_3
 _geom_angle_publ_flag
I2 Pb1 I1 96.03(4) . . ?
I1 Pb1 I1 90.42(5) 1_556 . ?
I1 Pb1 I3 177.35(4) . 1_556 ?
I2 Pb1 I3 86.29(4) . . ?
I1 Pb1 I3 177.35(4) 1_556 . ?
I1 Pb1 I3 90.61(3) . . ?
I3 Pb1 I3 88.27(5) 1_556 . ?
I3 Pb2 I4 90.88(3) . . ?
I4 Pb2 I4 90.03(4) . 5_665 ?
Pb1 I1 Pb1 90.42(5) 1_554 . ?
Pb2 I3 Pb1 95.04(3) . . ?
Pb1 I3 Pb1 88.27(5) . 1_554 ?
C1 N1 H1A 109.8 . . ?
C1 N1 H1B 110.1 . . ?
H1A N1 H1B 109.0 . . ?
N1 C1 H1C 109.6 . . ?
N1 C1 H1D 110.0 . . ?
H1C C1 H1D 109.1 . . ?
C2 N2 C3 121.0(16) . . ?
C2 N2 C4 122.0(15) . . ?
C3 N2 C4 117.1(15) . . ?
O1 C2 N2 121.8(18) . . ?
O1 C2 H2 119.1 . . ?
N2 C2 H2 119.1 . . ?
N2 C3 H3A 110.9 . . ?
N2 C3 H3B 109.9 . . ?
H3A C3 H3B 109.1 . . ?
N2 C4 H4A 111.4 . . ?
N2 C4 H4B 109.3 . . ?
H4A C4 H4B 109.4 . . ?
 
loop_
 _geom_hbond_atom_site_label_D 
 _geom_hbond_atom_site_label_H 
 _geom_hbond_atom_site_label_A 
 _geom_hbond_distance_DH 
 _geom_hbond_distance_HA 
 _geom_hbond_distance_DA 
 _geom_hbond_angle_DHA 
 _geom_hbond_site_symmetry_A 
N1 H1B O1  0.90 1.99 2.870(16) 167.0 .
 
_refine_diff_density_max    5.245
_refine_diff_density_min   -4.036
_refine_diff_density_rms    0.621

_shelxl_version_number 2014/6

_shelx_res_file
;
TITL Pb3I8MAH in Pnnm
CELL 0.96990  17.1648  21.9551   4.5549  90.000  90.000  90.000
ZERR    2.00   0.0035   0.0044   0.0009   0.000   0.000   0.000
LATT 1
SYMM -X, -Y, +Z
SYMM 0.5-X, 0.5+Y, 0.5-Z
SYMM 0.5+X, 0.5-Y, 0.5-Z
SFAC C H N O I Pb
DISP C 0.007 0.003 25.571
DISP H -0 0 0.636
DISP N 0.013 0.007 47.42
DISP O 0.021 0.012 81.964
DISP I -0.034 3.136 18629.286
DISP Pb -9.900 4.074 21889.318
UNIT 16 52 8 4 16 6
TEMP -173.0
SIZE 0.05 0.06 0.25

OMIT 3 0 5
OMIT 4 2 5
OMIT 3 1 5
OMIT 5 4 5
OMIT 5 5 5
OMIT 13 6 4
OMIT 3 2 5
OMIT 4 3 5
OMIT 14 4 4
OMIT 6 2 5
OMIT 2 1 5
OMIT 6 3 5
OMIT 6 4 5
OMIT 4 4 5
OMIT 10 5 5
OMIT 19 11 0
OMIT 6 1 5
OMIT 5 1 5
OMIT 14 2 4
OMIT 1 3 5
OMIT 16 12 3
OMIT 7 5 5
OMIT 15 18 2
OMIT 3 0 1
OMIT 5 17 1
OMIT 2 3 0
OMIT 20 8 1
OMIT 6 5 5
OMIT 5 0 5
OMIT 7 3 5
OMIT 20 4 0
OMIT 16 13 2
OMIT 5 3 2
OMIT 3 3 5
OMIT 13   8   4
OMIT 12  11   1
OMIT  0  13   1
OMIT 11   1   1
OMIT     5   3   1
OMIT     1  10   0
OMIT    17  12   2

L.S. 12
BOND $H
ACTA
CONF
HTAB N1 O1
DFIX 1.340 0.003 C2 N2
DFIX 1.450 0.003 N2 C3 N2 C4
EADP N1 C1
EADP C3 C4

WGHT    0.000000
EXTI    0.000670
FVAR       0.15768
PB1   6    0.707522    0.602274    1.000000    10.50000    0.02951    0.03399 =
         0.03421    0.00000    0.00000   -0.00298
PB2   6    0.500000    0.500000    0.500000    10.25000    0.02685    0.03434 =
         0.03482    0.00000    0.00000   -0.00186
I1    5    0.830845    0.566092    0.500000    10.50000    0.03060    0.03929 =
         0.03516    0.00000    0.00000    0.00357
I2    5    0.744215    0.737374    1.000000    10.50000    0.03028    0.03739 =
         0.03920    0.00000    0.00000   -0.00409
I3    5    0.576855    0.633811    0.500000    10.50000    0.02550    0.03055 =
         0.03503    0.00000    0.00000    0.00034
I4    5    0.377741    0.540446    0.000000    10.50000    0.02734    0.03212 =
         0.03776    0.00000    0.00000    0.00075
N1    3    0.406098    0.777310    0.000000    10.50000    0.02736    0.06103 =
         0.04372    0.00000    0.00000    0.00099
AFIX   3
H1A   2    0.355978    0.789370    0.000000    10.50000   -1.50000
H1B   2    0.429808    0.792270    0.160820    11.00000   -1.50000
AFIX   0
C1    1    0.410186    0.708132    0.000000    10.50000    0.02736    0.06103 =
         0.04372    0.00000    0.00000    0.00099
AFIX   3
H1C   2    0.464786    0.695082    0.000000    10.50000   -1.50000
H1D   2    0.384346    0.691932    0.175250    11.00000   -1.50000
AFIX   0
O1    4    0.498922    0.809848    0.500000    10.50000    0.02465    0.04361 =
         0.03596    0.00000    0.00000   -0.00719
N2    3    0.596291    0.877704    0.500000    10.50000    0.02498    0.03998 =
         0.04338    0.00000    0.00000   -0.00091
C2    1    0.568768    0.820632    0.500000    10.50000    0.02218    0.04134 =
         0.03063    0.00000    0.00000    0.01256
AFIX  43
H2    2    0.604533    0.787610    0.500000    10.50000   -1.20000
AFIX   0
C3    1    0.679378    0.889530    0.500000    10.50000    0.01608    0.03985 =
         0.11620    0.00000    0.00000   -0.00074
AFIX   3
H3A   2    0.689878    0.933410    0.500000    10.50000   -1.50000
H3B   2    0.703408    0.871140    0.326100    11.00000   -1.50000
AFIX   0
C4    1    0.545021    0.930182    0.500000    10.50000    0.01608    0.03985 =
         0.11620    0.00000    0.00000   -0.00074
AFIX   3
H4A   2    0.574661    0.968332    0.500000    10.50000   -1.50000
H4B   2    0.511521    0.928722    0.325910    11.00000   -1.50000

AFIX   0
HKLF 4

REM  Pb3I8MAH in Pnnm
REM R1 =  0.0970 for    1397 Fo > 4sig(Fo)  and  0.1193 for all    2046 data
REM     70 parameters refined using      3 restraints

END

WGHT      0.0001      0.0000

REM Highest difference peak  5.245,  deepest hole -4.036,  1-sigma level  0.621
Q1    1   0.7016  0.5540  1.0000  10.50000  0.05    4.02
Q2    1   0.7035  0.6470  1.0000  10.50000  0.05    3.65
Q3    1   0.7520  0.6903  1.0000  10.50000  0.05    2.82
Q4    1   0.5016  0.5487  0.5000  10.50000  0.05    2.74
Q5    1   0.2242  0.7815  0.0000  10.50000  0.05    2.63
Q6    1   0.5805  0.5885  0.5000  10.50000  0.05    2.63
Q7    1   0.8355  0.6120  0.5000  10.50000  0.05    2.53
Q8    1   0.6227  0.6859  0.5000  10.50000  0.05    2.45
Q9    1   0.7526  0.7833  1.0000  10.50000  0.05    2.39
Q10   1   0.3756  0.4970  0.0000  10.50000  0.05    2.33
Q11   1   0.8220  0.5301  0.5000  10.50000  0.05    2.14
Q12   1   0.8404  0.5931  0.8417  11.00000  0.05    1.78
Q13   1   0.7180  0.8339  0.0000  10.50000  0.05    1.75
Q14   1   0.7468  0.9091  0.0000  10.50000  0.05    1.66
Q15   1   0.6161  0.6572  0.2563  11.00000  0.05    1.56
Q16   1   0.2813  0.7542  0.0000  10.50000  0.05    1.51
Q17   1   0.6827  0.6196  1.2651  11.00000  0.05    1.48
Q18   1   0.6042  0.8411  0.4180  11.00000  0.05    1.48
Q19   1   0.3394  0.5177 -0.2592  11.00000  0.05    1.45
Q20   1   0.5471  0.6462  0.7771  11.00000  0.05    1.45
;
_shelx_res_checksum   23746

_shelx_hkl_file
;
   0   3   0   -1.54    6.87
   0  -3   0    0.12    5.95
   0  -3   0    0.39    2.25
   0   4   0   19.20    9.82
   0  -4   0   14.83    9.07
   0   5   0    4.00    9.12
   0  -5   0    3.16    7.87
   0   6   0 1094.89  432.41
   0  -6   0 2222.24  432.93
   0   7   0    2.63    9.49
   0  -7   0    0.68    7.81
   0  -7   0    0.39    2.52
   0   8   0  926.17  250.56
   0  -8   0  881.77  250.81
   0  -8   0  892.99  381.99
   0   9   0    8.62   10.50
   0  -9   0    4.44    3.28
   0  10   0    9.26   11.27
   0 -10   0   19.48   11.16
   0 -10   0   11.55    4.90
   0  11   0    4.69   11.85
   0 -11   0    8.08   11.28
   0  12   0   43.30   16.92
   0 -12   0   24.87   16.32
   0 -12   0   30.56   14.19
   0  13   0    2.92   14.70
   0 -13   0    5.58   13.95
   0 -13   0    2.30    3.72
   0 -13   0    2.71   13.21
   0  14   0   53.87   21.89
   0 -14   0   38.60   20.37
   0 -14   0   41.90   17.15
   0 -14   0   40.89   14.90
   0  15   0    7.54   17.51
   0 -15   0    3.59   14.23
   0 -15   0   -0.77    3.20
   0  16   0  245.86   75.71
   0 -16   0  270.10   74.46
   0 -16   0  252.42  107.20
   0 -16   0  260.51  103.60
   0  17   0    4.13   18.26
   0 -17   0    2.34   11.87
   0  18   0   92.99   28.13
   0 -18   0   29.41   24.22
   0 -18   0   79.27   30.02
   0  19   0    5.22   16.74
   0 -19   0    4.56   13.71
   0  20   0  259.86   75.91
   0 -22   0  298.26  125.72
   1   3   0  336.58   60.32
  -1  -3   0  183.07   58.78
  -1  -3   0  167.91   83.12
  -1  -3   0  183.19   58.34
   1   3   0  248.47   59.16
   1   4   0  310.28   54.89
  -1  -4   0  247.86   54.75
  -1  -4   0  187.46   75.52
  -1  -4   0  175.39   54.16
  -1  -4   0  175.73   79.69
   1   4   0  158.13   53.92
   1   5   0   86.63   25.37
  -1  -5   0  112.69   26.78
  -1  -5   0   64.56   29.10
  -1  -5   0  133.83   28.24
   1   5   0   78.92   24.40
   1   5   0   71.08   32.86
   1   6   0  675.77  129.44
  -1  -6   0  647.36  130.20
  -1  -6   0  627.75  190.93
  -1  -6   0  802.67  130.28
  -1  -6   0  333.60  194.31
   1   6   0  346.84  128.79
   1   6   0  457.42  194.76
   1   7   0 2294.97  648.62
  -1  -7   0 3372.37  649.60
  -1  -7   0 2568.13  990.21
  -1  -7   0 2447.23  648.94
   1   7   0 1525.40  648.40
   1   8   0 1780.00  717.47
  -1  -8   0 4755.54  718.99
  -1  -8   0 2053.24 1099.43
  -1  -8   0 2124.45 1096.18
  -1  -8   0 3656.36  718.23
   1   8   0 3527.77  717.92
   1   9   0  530.79  182.69
  -1  -9   0  801.52  183.96
  -1  -9   0  518.61  276.80
  -1  -9   0  740.39  273.11
  -1  -9   0 1078.33  184.21
   1   9   0  855.49  183.21
   1   9   0  664.11  277.25
   1  10   0   16.98   12.77
  -1 -10   0   34.52   15.70
  -1 -10   0   20.19    7.85
  -1 -10   0   36.50    8.51
  -1 -10   0   47.78   17.22
   1  10   0   26.94   12.83
   1  10   0   13.75    7.77
   1  11   0  114.47   40.58
  -1 -11   0  156.22   41.95
  -1 -11   0  102.49   52.64
  -1 -11   0  157.39   43.05
   1  11   0  180.69   41.12
   1  11   0  133.73   56.79
   1  12   0  135.31   40.64
  -1 -12   0  199.18   41.85
  -1 -12   0  100.59   56.61
  -1 -12   0  182.64   53.03
  -1 -12   0  254.40   43.29
   1  12   0  213.42   41.13
   1  12   0  126.63   56.42
   1  13   0   82.17   21.48
  -1 -13   0   87.37   21.78
  -1 -13   0   50.71   24.12
  -1 -13   0   51.80   21.78
  -1 -13   0   72.71   23.92
   1  13   0   61.70   20.48
   1  13   0   58.75   23.78
   1  14   0  351.55   92.25
  -1 -14   0  321.07   92.21
  -1 -14   0  358.14   92.85
   1  14   0  250.08   92.12
   1  15   0   10.74   14.12
  -1 -15   0    3.52   10.17
  -1 -15   0    6.47    4.50
  -1 -15   0    8.07   14.24
   1  15   0    4.31   12.30
   1  15   0    6.92    4.89
   1  16   0  160.00   37.91
  -1 -16   0   78.95   34.63
  -1 -16   0  117.12   47.28
  -1 -16   0  106.67   44.64
  -1 -16   0   96.30   35.84
   1  16   0  127.62   38.76
   1  16   0  119.07   44.94
   1  17   0   11.65   19.13
  -1 -17   0    6.25   10.52
  -1 -17   0    4.87    5.43
  -1 -17   0   12.09   13.45
   1  17   0    5.81   15.64
   1  17   0    9.32   13.10
   1  18   0  395.96  103.87
  -1 -18   0  373.89  150.65
  -1 -18   0  340.37  146.93
   1  18   0  212.17  102.48
   1  18   0  303.36  146.49
   1  19   0   44.77   25.08
  -1 -19   0   28.70   11.70
  -1 -19   0   15.01   15.43
   1  19   0   24.09   12.75
   1  19   0   13.56   13.91
   1  20   0   21.64   21.28
  -1 -20   0   10.10    8.73
  -1 -20   0    2.71   21.45
   1  20   0    8.22    8.36
   1  21   0  663.48  130.54
   1  21   0  401.24  192.11
   1  22   0  705.11  196.59
  -1 -22   0  814.17  295.83
   1  22   0  553.60  295.31
   1  23   0  372.56  157.35
   2   1   0  363.19  153.89
  -2  -1   0  380.64  153.47
   2   1   0  370.79  154.78
   2   2   0  578.20  238.49
  -2  -2   0  494.27  238.47
  -2  -2   0  592.46  241.16
   2   3   0    3.69    6.30
  -2  -3   0    7.45    6.78
  -2  -3   0   14.56    3.89
   2   3   0    4.36    4.15
   2   4   0  103.03   33.18
   2   4   0   98.24   42.36
  -2  -4   0  127.83   42.93
   2   4   0   84.19   32.50
   2   4   0  124.02   45.25
   2   5   0 7770.56 1751.84
   2   5   0 5279.89 1751.21
   2   6   0 7431.09 1580.31
   2   6   0 4425.18 1579.79
   2   7   0 3517.22  724.79
  -2  -7   0 2559.38  724.74
  -2  -7   0 1746.50 1107.85
   2   7   0 1794.36  724.17
   2   7   0 3048.34 1109.99
   2   8   0    9.04   11.34
  -2  -8   0   11.32   13.30
  -2  -8   0   11.33    6.88
   2   8   0    4.39    9.15
   2   9   0   32.64   18.84
  -2  -9   0   49.68   18.55
   2   9   0   50.82   18.17
   2   9   0   56.64   19.93
   2  10   0   22.05   15.00
  -2 -10   0   37.06   13.10
  -2 -10   0   17.49    9.35
  -2 -10   0   21.96    9.05
  -2 -10   0   32.58    9.12
   2  10   0   29.27   13.09
   2  11   0  350.57  115.61
  -2 -11   0  474.00  115.64
  -2 -11   0  387.00  172.35
  -2 -11   0  457.26  170.12
   2  11   0  421.85  115.64
   2  12   0  183.21   46.15
  -2 -12   0  165.26   45.77
  -2 -12   0  109.65   64.37
   2  12   0  152.46   45.96
   2  12   0  216.41   63.87
   2  13   0  162.88   49.40
  -2 -13   0  169.60   49.26
  -2 -13   0  169.40   67.02
   2  13   0  172.37   50.13
   2  13   0  164.80   68.88
   2  14   0 1517.21  401.98
  -2 -14   0 1162.45  402.10
   2  14   0 1238.36  402.16
   2  14   0 1569.47  613.07
   2  15   0   26.50   14.03
  -2 -15   0   14.64    7.29
   2  15   0   24.82    7.88
   2  16   0  377.20   87.29
  -2 -16   0  329.06  124.73
   2  16   0  190.78   86.60
   2  17   0   75.29   24.27
  -2 -17   0   55.28   23.11
   2  17   0   50.67   22.31
   2  17   0   63.76   25.56
   2  18   0   41.03   23.63
  -2 -18   0   54.57   21.46
   2  18   0   40.00   22.63
   2  19   0    5.59   19.37
  -2 -19   0    5.85    6.32
  -2 -19   0    1.79   20.78
   2  19   0    1.98    7.39
   2  19   0    0.30   15.77
   2  20   0   67.00   31.45
   2  20   0   36.66   17.68
   2  21   0    4.53   24.88
   2  21   0   -1.13   12.07
   2  22   0  281.58   87.35
  -2 -22   0  294.98  123.53
   2  23   0  150.80   42.91
   2  23   0  115.72   55.48
   2  24   0  566.59  125.63
  -2 -24   0  460.74  185.06
   2  24   0  329.85  185.81
  -2 -25   0   13.99   18.46
   3   0   0    1.11   11.97
  -3   0   0    3.06    9.35
   3   1   0   37.56   25.24
  -3  -1   0   43.79   23.83
  -3  -1   0   72.24   24.06
   3   1   0   98.41   25.88
   3   2   0  668.60  227.84
  -3  -2   0  513.74  228.07
  -3  -2   0  553.42  229.28
   3   2   0  476.56  228.97
   3   3   0  422.55  190.50
  -3  -3   0  457.44  190.68
  -3  -3   0  411.28  192.94
   3   3   0  626.73  190.40
   3   4   0 1108.18  366.98
  -3  -4   0 1016.18  366.13
  -3  -4   0  860.66  369.28
   3   4   0  685.60  368.24
   3   5   0  422.96  107.92
   3   5   0  306.04  157.72
  -3  -5   0  374.77  157.80
  -3  -5   0  404.35  160.43
   3   5   0  369.83  160.30
   3   6   0 1836.25  461.87
   3   6   0 2337.91  702.59
  -3  -6   0 1131.80  702.41
   3   6   0  928.65  461.19
   3   6   0 1825.37  705.31
   3   7   0  125.23   32.19
  -3  -7   0  112.89   35.04
  -3  -7   0   72.23   37.66
   3   7   0  134.23   30.28
   3   7   0  108.03   37.17
   3   8   0  674.65  214.35
  -3  -8   0  859.67  322.10
   3   8   0  653.11  213.95
   3   8   0  805.02  324.87
   3   9   0   39.91   25.61
  -3  -9   0   64.49   31.37
  -3  -9   0  106.59   34.52
   3   9   0   44.43   25.52
   3   9   0   73.29   33.96
   3  10   0   21.88   14.46
  -3 -10   0   32.96   11.66
   3  10   0   30.45   12.47
   3  10   0   26.80   11.04
   3  11   0   23.42   14.97
  -3 -11   0   32.94   10.51
  -3 -11   0   31.30   11.26
   3  11   0   35.73   13.87
   3  11   0   28.24   11.55
   3  12   0  329.10   70.53
  -3 -12   0  170.05  101.79
  -3 -12   0  201.31   98.57
  -3 -12   0  273.45  101.59
   3  12   0  216.85   69.77
   3  12   0  291.61  101.77
   3  13   0 1136.95  406.78
  -3 -13   0 1370.21  620.78
  -3 -13   0 1240.82  617.61
   3  13   0 1729.08  407.24
   3  13   0 1618.38  620.90
   3  14   0  558.39  155.25
  -3 -14   0  483.61  229.90
   3  14   0  495.93  155.32
   3  14   0  580.03  233.09
   3  15   0 2597.24  646.44
   3  15   0 1829.23  646.47
   3  15   0 2354.15  989.00
   3  16   0 2241.91  522.74
  -3 -16   0 1621.97  795.17
   3  16   0 1307.25  522.55
   3  16   0 1970.11  798.54
   3  17   0  567.71  110.31
  -3 -17   0  286.59  163.44
  -3 -17   0  531.44  160.49
   3  17   0  275.82  109.49
   3  17   0  526.42  162.73
   3  18   0  224.11   52.49
  -3 -18   0  170.08   73.08
  -3 -18   0  132.69   69.70
   3  19   0   14.41   15.88
  -3 -19   0    7.55    6.27
  -3 -19   0   12.06   21.54
   3  20   0   29.12   20.13
  -3 -20   0   23.52   10.69
   3  20   0    3.27   16.92
   3  21   0  205.17   46.33
  -3 -21   0  123.75   54.81
   3  22   0  403.06   71.48
  -3 -22   0  231.55   94.07
   3  22   0  148.53   92.73
   3  23   0  -10.59   25.33
  -3 -23   0    1.96   10.84
   3  23   0   -0.21   14.20
   3  24   0  205.73   64.17
   3  25   0    4.05   24.12
  -3 -25   0   11.37   19.65
   4   0   0  322.03  122.76
  -4   0   0  279.45  123.18
   4   1   0   28.28   13.49
  -4  -1   0   16.93   10.76
  -4  -1   0   10.48    8.73
   4   1   0    7.75   11.87
   4   2   0  839.98  595.10
  -4  -2   0  940.73  594.80
  -4  -2   0 2011.49  595.58
   4   2   0 1658.69  596.02
   4   3   0  256.79   94.21
  -4  -3   0  342.06   94.72
  -4  -3   0  156.66   96.22
   4   3   0  287.74   95.02
   4   4   0  495.47  319.59
  -4  -4   0  415.03  319.61
   4   4   0 1443.89  319.57
   4   5   0   68.72   19.99
  -4  -5   0   26.60   18.44
  -4  -5   0   46.15   18.73
   4   6   0   77.79   39.33
   4   6   0  105.98   52.67
  -4  -6   0  101.66   52.43
   4   6   0  187.80   54.22
   4   7   0  543.04  229.88
   4   7   0 1342.65  346.23
  -4  -7   0  633.18  345.90
  -4  -7   0  870.90  349.43
   4   7   0  640.81  229.56
   4   7   0  817.98  348.64
   4   8   0 3299.32  569.42
   4   8   0 2201.26  866.52
  -4  -8   0 2050.76  866.02
  -4  -8   0 1812.98  869.87
   4   8   0 2829.70  568.57
   4   9   0  417.66  109.97
  -4  -9   0  318.98  159.62
   4   9   0  359.93  109.05
   4   9   0  409.40  162.26
   4  10   0  807.33  380.03
  -4 -10   0 1858.19  577.29
  -4 -10   0 1306.17  581.04
   4  10   0  859.62  379.79
   4  10   0 1836.32  579.80
   4  11   0  844.99  282.89
  -4 -11   0 1254.44  427.19
  -4 -11   0  813.66  430.79
   4  11   0  922.94  282.51
   4  11   0 1468.25  429.94
   4  12   0 1900.74  639.28
  -4 -12   0 2729.81  975.23
   4  12   0 2266.11  639.05
   4  13   0 1395.23  641.97
  -4 -13   0 1881.59  979.27
  -4 -13   0 2874.68  982.84
   4  13   0 1504.50  641.78
   4  14   0   -2.66   13.85
  -4 -14   0    2.36    4.24
  -4 -14   0    6.55   16.19
  -4 -14   0    2.44    4.14
   4  14   0    8.00   11.06
   4  15   0   11.62   14.87
  -4 -15   0   26.64    8.37
  -4 -15   0   13.28   13.12
   4  15   0   11.55   15.63
   4  15   0   15.47   10.55
   4  16   0   55.54   21.57
  -4 -16   0   40.32   22.04
   4  16   0   69.50   22.79
   4  16   0   82.35   23.55
   4  17   0 1633.09  423.57
   4  17   0 1001.95  423.51
   4  17   0 1661.44  645.37
   4  18   0  206.63   52.08
  -4 -18   0  153.05   72.57
  -4 -18   0  176.30   71.85
   4  18   0  206.28   72.06
   4  19   0  224.27   54.63
  -4 -19   0  187.57   74.86
   4  19   0  126.34   73.56
   4  20   0  345.95   67.49
   4  20   0  169.92   93.18
   4  21   0  329.19   59.52
   4  21   0  133.98   78.82
   4  22   0    6.30   21.37
  -4 -22   0    5.53    8.66
   4  23   0   62.22   33.21
  -4 -23   0   21.01   11.92
   4  23   0    9.53   27.43
   4  24   0  116.75   45.50
   4  25   0   23.26   25.83
   4  26   0   -0.70   21.16
   5   0   0   38.81   16.24
  -5   0   0   22.05   12.33
   5   1   0   15.18   14.33
  -5  -1   0    5.92   10.83
  -5  -1   0   10.49    9.24
   5   1   0   11.25   13.39
   5   2   0  451.21  248.24
  -5  -2   0  479.21  248.06
  -5  -2   0  706.15  248.01
   5   2   0  719.12  248.83
   5   3   0   15.74   13.99
  -5  -3   0   13.28   11.96
  -5  -3   0   24.25    8.58
   5   3   0   22.68   14.24
   5   4   0  282.88  116.82
  -5  -4   0  271.74  116.66
  -5  -4   0  281.67  119.06
   5   4   0  297.66  117.83
   5   5   0   36.69   17.95
  -5  -5   0   45.59   16.99
  -5  -5   0   40.67   17.93
   5   5   0   72.11   18.25
   5   6   0   58.56   29.62
  -5  -6   0   61.05   28.91
  -5  -6   0   80.13   31.06
   5   6   0   99.33   28.59
   5   7   0  101.39   41.61
   5   7   0  188.65   55.57
  -5  -7   0  159.17   55.05
  -5  -7   0  106.49   56.47
   5   7   0  193.74   54.98
   5   8   0   13.47   11.91
   5   8   0    5.08   12.01
  -5  -8   0    3.87    8.88
  -5  -8   0    4.92    2.76
   5   8   0    6.74    8.41
   5   9   0 2564.89  842.35
   5   9   0 2673.17 1287.43
  -5  -9   0 2656.14 1287.08
  -5  -9   0 3047.58 1290.88
   5   9   0 4076.64  842.38
   5  10   0 3043.39  628.01
  -5 -10   0 2884.40  956.77
  -5 -10   0 1807.12  960.37
   5  10   0 2531.97  627.25
   5  10   0 2902.85  958.89
   5  11   0 1848.06  631.69
  -5 -11   0 2294.38  963.74
  -5 -11   0 2399.39  967.74
   5  11   0 1840.43  631.40
   5  12   0    5.28   11.89
  -5 -12   0   -0.83   11.45
  -5 -12   0    1.44    4.17
   5  12   0   -0.57    8.60
   5  12   0   15.17    7.94
   5  13   0  141.86   41.08
  -5 -13   0  141.12   52.90
  -5 -13   0  123.24   55.91
   5  13   0  150.74   40.10
   5  13   0  148.16   54.84
   5  14   0   61.25   25.17
  -5 -14   0  112.74   31.29
  -5 -14   0   68.76   29.42
   5  14   0   64.67   23.04
   5  15   0  540.98  134.71
  -5 -15   0  406.20  200.89
  -5 -15   0  500.14  197.77
  -5 -15   0  562.30  200.71
   5  15   0  373.82  134.11
   5  15   0  476.98  200.13
   5  16   0  282.78   93.34
  -5 -16   0  292.07  136.85
  -5 -16   0  414.13  134.91
   5  16   0  332.44   93.83
   5  16   0  356.15  136.51
   5  17   0  132.65   39.03
  -5 -17   0  124.06   51.53
  -5 -17   0  133.72   51.21
   5  17   0  116.05   50.85
   5  18   0   28.18   18.04
  -5 -18   0   28.39   11.44
  -5 -18   0   26.62   20.38
   5  18   0   15.59   13.39
   5  19   0  449.70  128.27
   5  20   0  682.82  160.04
  -5 -20   0  541.28  239.39
   5  21   0  137.77   43.93
  -5 -21   0  136.12   57.35
   5  22   0   18.47   19.30
   5  23   0   90.24   30.12
   5  23   0   34.54   42.75
   5  24   0   -4.87   24.25
  -5 -24   0    4.13   13.86
   5  25   0   16.99   30.16
   5  26   0  104.47   43.24
   5  27   0   -6.94   24.32
   6   0   0  193.07   96.06
  -6   0   0  263.55   96.45
   6   1   0 2427.24 1001.76
  -6  -1   0 1976.27 1001.57
  -6  -1   0 2163.38 1001.79
   6   1   0 2952.76 1001.23
   6   2   0 3115.57 1877.87
  -6  -2   0 2194.62 1877.91
  -6  -2   0 6481.56 1877.94
   6   2   0 5958.79 1878.31
   6   3   0 3357.80 1520.12
  -6  -3   0 3524.96 1520.19
  -6  -3   0 3627.79 1521.80
   6   3   0 3696.30 1520.59
   6   4   0  105.04   68.74
  -6  -4   0  218.08   68.55
  -6  -4   0  156.11   70.55
   6   4   0  223.31   69.45
   6   5   0  388.61  174.30
  -6  -5   0  420.90  173.80
  -6  -5   0  430.07  176.66
   6   5   0  411.24  175.03
   6   6   0  136.78   51.84
  -6  -6   0  140.03   51.16
  -6  -6   0  112.10   53.42
   6   6   0  160.33   52.69
   6   7   0  310.19   99.69
  -6  -7   0  185.40   99.29
  -6  -7   0  212.62  102.26
   6   7   0  371.54   99.97
   6   8   0 1923.84  491.72
  -6  -8   0 1652.31  748.54
  -6  -8   0 1688.57  750.94
   6   8   0 1957.66  748.10
   6   9   0   63.06   23.99
   6   9   0  119.92   29.02
  -6  -9   0   61.70   27.73
   6   9   0   61.23   22.13
   6  10   0  735.80  240.86
   6  10   0 1226.38  361.97
  -6 -10   0  714.21  361.53
  -6 -10   0  734.95  364.97
   6  10   0 1040.91  240.82
   6  10   0 1329.95  361.66
   6  11   0  657.69  177.44
  -6 -11   0  575.31  263.21
   6  11   0  545.04  176.51
   6  11   0  732.75  263.24
   6  12   0  595.76  139.44
  -6 -12   0  400.98  205.57
   6  12   0  362.06  138.66
   6  12   0  642.42  206.00
   6  13   0  180.08   63.48
  -6 -13   0  233.94   92.96
   6  13   0  180.68   63.35
   6  14   0  382.88   68.48
  -6 -14   0  417.06   96.78
  -6 -14   0  185.29   97.83
   6  14   0  219.92   66.96
   6  15   0  219.91   44.37
  -6 -15   0  156.51   58.38
  -6 -15   0  132.94   59.77
   6  15   0  122.61   43.19
   6  16   0  102.95   33.75
  -6 -16   0  118.34   42.42
   6  16   0   60.75   32.98
   6  16   0   94.92   41.20
   6  17   0  690.65  218.81
  -6 -17   0  860.79  330.49
  -6 -17   0  673.54  328.03
   6  17   0  674.48  327.31
   6  18   0  369.60  109.30
  -6 -18   0  357.10  161.62
   6  18   0  529.09  159.01
   6  19   0  326.97  102.15
  -6 -19   0  366.49  150.54
   6  19   0  301.04  146.72
   6  20   0  126.54   37.53
   6  20   0   83.35   43.65
   6  21   0    3.13   18.24
  -6 -21   0    1.90    7.60
   6  22   0  129.31   41.69
  -6 -22   0  118.57   53.26
   6  22   0  185.75   64.45
   6  23   0   40.04   21.99
  -6 -23   0   33.10   16.28
   6  23   0   24.75   45.07
   6  24   0    6.04   22.34
  -6 -24   0    7.80   15.31
   6  25   0    2.33   24.97
   6  26   0   62.18   39.28
   6  27   0   16.22   30.11
   7   0   0   19.46   16.47
  -7   0   0   22.64   11.23
   7   1   0  446.50  195.14
  -7  -1   0  439.41  195.09
  -7  -1   0  475.46  194.79
   7   1   0  513.91  195.06
   7   2   0  766.74  348.17
  -7  -2   0  596.65  347.97
  -7  -2   0  959.76  347.87
   7   2   0  998.52  348.19
   7   3   0 4234.34 1731.29
  -7  -3   0 4323.34 1731.56
  -7  -3   0 4461.37 1732.73
   7   3   0 3065.12 1731.47
   7   4   0 2396.16 1071.89
  -7  -4   0 2158.65 1071.85
  -7  -4   0 2354.39 1074.56
   7   4   0 3397.65 1072.49
   7   5   0 3069.53 2066.81
  -7  -5   0 5667.03 2066.67
  -7  -5   0 4646.76 2069.41
   7   5   0 6303.05 2067.46
   7   6   0  205.32  135.17
  -7  -6   0  475.45  134.80
  -7  -6   0  325.03  137.53
   7   6   0  336.25  135.65
   7   7   0  154.94   47.67
  -7  -7   0  139.19   46.13
  -7  -7   0   88.76   48.25
   7   7   0  154.60   47.76
   7   8   0  338.34  105.07
  -7  -8   0  257.76  104.86
  -7  -8   0  208.77  107.43
   7   8   0  326.29  106.28
   7   9   0  252.90  120.28
   7   9   0  412.06  176.74
  -7  -9   0  416.84  177.20
   7   9   0  594.11  178.34
   7  10   0  417.77   65.43
  -7 -10   0  315.10   89.22
  -7 -10   0  128.77   91.52
   7  10   0  314.46   63.52
   7  11   0   56.30   23.52
   7  11   0   23.39   16.37
  -7 -11   0   21.03   16.18
   7  11   0   19.94   20.08
   7  11   0   75.21   16.44
   7  12   0  147.72   27.29
  -7 -12   0   68.07   24.96
  -7 -12   0   46.64   27.01
   7  12   0   93.78   23.68
   7  12   0  102.95   27.04
   7  13   0   29.16   16.73
  -7 -13   0   31.67   14.05
   7  13   0   23.93   14.80
   7  13   0   66.55   14.49
   7  14   0  296.62   92.79
  -7 -14   0  384.83  134.60
  -7 -14   0  316.61  137.33
   7  14   0  266.38   92.79
   7  14   0  443.37  134.20
   7  15   0    8.03   13.30
  -7 -15   0   16.66   22.48
  -7 -15   0   -0.03    5.43
   7  15   0   11.78   15.35
   7  15   0   19.67   16.92
   7  16   0    1.55   13.01
  -7 -16   0    3.37   19.74
  -7 -16   0    0.68    4.75
   7  16   0    4.11   21.45
   7  17   0   22.35   16.11
  -7 -17   0   18.21   10.32
   7  17   0   19.95   21.92
   7  18   0  324.73  102.85
  -7 -18   0  396.53  151.21
   7  18   0  248.69  149.65
   7  19   0   59.99   21.74
  -7 -19   0   39.88   20.18
   7  19   0   79.53   34.18
   7  20   0  164.21   50.85
   7  21   0    5.19   18.85
   7  21   0    9.38   29.80
   7  22   0   28.90   23.50
  -7 -22   0   47.75   20.21
   7  23   0  196.76   40.18
  -7 -23   0  102.69   48.23
   7  24   0   -2.65   18.77
   7  25   0  406.50  120.11
   7  26   0  168.93   63.72
   8   0   0  404.51  198.19
  -8   0   0  531.80  198.46
   8   1   0 2204.70  730.40
  -8  -1   0 1895.77  730.95
  -8  -1   0  982.13  729.58
   8   1   0 1678.07  730.06
   8   2   0   11.88   16.69
  -8  -2   0    3.42   11.74
  -8  -2   0    4.90   11.45
   8   2   0   99.30   20.53
   8   3   0 2911.41 1204.69
  -8  -3   0 2954.61 1204.88
  -8  -3   0 3103.05 1206.08
   8   3   0 2183.36 1204.53
   8   4   0 5966.92 2941.43
  -8  -4   0 4301.35 2941.49
  -8  -4   0 7243.17 2944.16
   8   4   0 9381.66 2941.93
   8   5   0   -3.94   14.32
  -8  -5   0    2.81   11.71
  -8  -5   0    3.13    7.74
   8   5   0    3.71   18.04
   8   6   0  205.06  126.15
  -8  -6   0  220.90  125.52
  -8  -6   0  317.59  128.52
   8   6   0  444.50  126.59
   8   7   0 1355.79  537.05
  -8  -7   0 1533.10  536.37
  -8  -7   0 1084.94  539.37
   8   7   0 1540.81  537.06
   8   8   0   97.99   45.40
  -8  -8   0  185.40   46.45
  -8  -8   0   94.20   47.19
   8   8   0  157.26   45.98
   8   9   0   12.28   14.57
  -8  -9   0   13.03   15.67
   8   9   0    7.06   10.66
   8  10   0  157.51   41.21
   8  10   0  165.94   54.49
  -8 -10   0  189.58   55.52
  -8 -10   0   96.44   56.51
   8  10   0  123.67   39.93
   8  10   0  212.06   55.87
   8  11   0    1.48   15.67
   8  11   0   -0.26   14.23
  -8 -11   0    5.97   13.81
  -8 -11   0   -0.38    4.55
   8  11   0   -2.07   11.38
   8  11   0    6.94   13.84
   8  12   0  135.22   30.74
   8  12   0  113.89   30.05
  -8 -12   0   64.30   29.23
  -8 -12   0   50.67   30.42
   8  12   0  143.68   31.15
   8  13   0   21.20   21.67
  -8 -13   0    1.72   18.96
  -8 -13   0   61.63   19.71
   8  13   0    7.25   18.61
   8  13   0   61.11   21.61
   8  14   0  217.82   59.58
  -8 -14   0   88.89   80.92
   8  14   0  149.24   59.78
   8  14   0  317.01   84.30
   8  15   0   41.65   15.98
  -8 -15   0    5.48   12.78
  -8 -15   0   28.67   12.07
   8  15   0    7.71   17.48
   8  15   0   45.11   19.73
   8  16   0    9.62   15.15
   8  16   0   17.30   23.37
   8  17   0    9.86   15.88
   8  17   0   22.88   24.39
   8  18   0    6.67   15.36
  -8 -18   0    7.14    6.65
   8  18   0    2.29   25.90
   8  19   0    5.67   15.21
  -8 -19   0    4.90    9.82
   8  20   0   97.76   33.04
   8  21   0   77.10   23.92
   8  21   0   15.36   34.14
   8  22   0  157.65   51.70
  -8 -22   0  165.18   69.33
   8  23   0   98.95   28.37
  -8 -23   0   54.12   25.99
   8  24   0  351.18   56.79
  -8 -24   0  149.87   73.52
   8  25   0   15.62   29.07
   8  26   0  389.78  120.08
   9   0   0  808.88  185.68
  -9   0   0   86.77  184.04
   9   1   0 5163.29 2187.39
  -9  -1   0 5116.34 2188.28
  -9  -1   0 4865.02 2186.88
   9   1   0 5329.03 2187.63
   9   2   0 1470.65  851.11
  -9  -2   0 2196.66  852.41
  -9  -2   0 1254.71  851.11
   9   2   0 2998.62  851.82
   9   3   0 1124.00  440.17
  -9  -3   0 1411.43  440.65
  -9  -3   0  741.55  441.20
   9   3   0 1022.45  439.87
   9   4   0 1028.53  411.12
  -9  -4   0  696.08  410.82
  -9  -4   0  894.14  413.42
   9   4   0 1445.08  411.27
   9   5   0   38.37   18.84
  -9  -5   0   42.62   16.59
  -9  -5   0   41.46   16.92
   9   5   0   48.16   19.55
   9   6   0  612.57  237.32
  -9  -6   0  447.78  236.72
   9   6   0  630.48  237.26
   9   7   0  544.81  217.76
  -9  -7   0  533.22  216.95
  -9  -7   0  453.28  219.64
   9   7   0  684.54  217.58
   9   8   0   75.61   38.28
  -9  -8   0  128.19   38.20
  -9  -8   0   85.57   39.65
   9   8   0  135.96   40.66
   9   9   0   38.43   15.92
  -9  -9   0    8.32   12.79
  -9  -9   0    6.47    6.40
   9   9   0   10.22   13.64
   9  10   0   83.56   26.18
   9  10   0  134.83   31.97
  -9 -10   0   65.55   30.64
  -9 -10   0   54.25   31.11
   9  10   0  110.85   31.67
   9  11   0   75.83   25.88
   9  11   0  174.79   31.83
  -9 -11   0   51.63   29.75
  -9 -11   0   41.90   30.35
   9  11   0   99.19   24.86
   9  11   0  115.57   31.19
   9  12   0  301.84   39.31
   9  12   0   99.72   42.58
  -9 -12   0  108.99   44.11
  -9 -12   0   57.30   45.18
   9  12   0  194.42   36.51
   9  12   0  180.45   45.87
   9  13   0   65.52   22.16
  -9 -13   0   14.36   15.56
  -9 -13   0   17.96   11.12
   9  13   0   35.39   23.41
   9  13   0   70.56   18.34
   9  14   0  372.77   65.27
  -9 -14   0  206.91   90.76
  -9 -14   0  150.93   92.32
   9  14   0  213.78   65.84
   9  14   0  477.27   92.86
   9  15   0   65.78   18.02
  -9 -15   0   23.17   13.97
   9  15   0   65.12   25.34
   9  16   0   27.12   15.33
  -9 -16   0    5.27    7.45
   9  16   0   32.64   20.95
   9  17   0  187.74   54.92
   9  17   0  175.08   75.61
   9  18   0  370.58   80.20
   9  18   0  174.38  112.23
   9  19   0  275.66  101.86
  -9 -19   0  373.51  149.83
   9  20   0   -4.04   15.50
  -9 -20   0    0.39   10.77
   9  20   0   -3.44   24.97
   9  21   0   77.87   28.42
   9  22   0   16.62   20.58
   9  23   0   29.61   22.14
   9  24   0  148.49   51.27
   9  25   0   16.99   26.80
 -10   0   0  797.58  335.94
  10   1   0   17.59   17.96
 -10  -1   0    5.09   11.46
 -10  -1   0    1.39   10.61
  10   1   0   18.42   17.78
  10   2   0 1170.15  333.59
 -10  -2   0  699.71  334.15
 -10  -2   0  569.25  333.06
  10   3   0   13.17   18.14
 -10  -3   0   31.73   14.18
 -10  -3   0   34.34   13.60
  10   3   0   40.26   18.92
  10   4   0  619.90  276.14
 -10  -4   0  634.74  276.31
 -10  -4   0  588.22  278.33
  10   4   0  931.67  276.27
  10   5   0  610.22  239.81
 -10  -5   0  597.40  239.78
 -10  -5   0  494.89  241.95
  10   5   0  738.22  239.79
  10   6   0  321.96  133.78
 -10  -6   0  220.58  132.99
 -10  -6   0  312.17  135.84
  10   6   0  470.59  134.04
  10   7   0  665.41  205.37
 -10  -7   0  655.83  204.88
 -10  -7   0  356.16  207.31
  10   7   0  594.77  204.92
  10   8   0  392.67   98.98
 -10  -8   0  288.61   98.17
 -10  -8   0  162.46  100.48
  10   8   0  328.36   99.67
  10   9   0 2210.65  485.57
 -10  -9   0 1765.00  485.45
 -10  -9   0  689.54  488.10
  10   9   0 1777.58  485.61
  10  10   0 1293.80  369.50
 -10 -10   0 1528.51  559.88
 -10 -10   0  917.97  562.27
  10  10   0 2330.39  560.70
  10  11   0  356.79   75.78
  10  11   0  676.00  109.17
 -10 -11   0  198.74  107.10
 -10 -11   0  139.12  110.00
  10  11   0  275.66   75.26
  10  11   0  393.04  108.53
  10  12   0   19.54   15.90
  10  12   0   18.86   15.51
 -10 -12   0    8.31   14.81
 -10 -12   0    1.67    6.74
  10  12   0   15.28   20.21
  10  13   0  385.67   41.90
  10  13   0  296.99   46.83
 -10 -13   0  187.22   47.67
 -10 -13   0   28.70   46.06
  10  13   0  215.42   43.03
  10  13   0  168.95   46.40
  10  14   0   60.85   25.07
  10  14   0   25.56   21.67
  10  15   0   37.24   15.11
 -10 -15   0   -0.17    7.06
  10  15   0   16.59   19.74
  10  16   0   77.81   24.19
  10  16   0   39.38   27.93
  10  17   0   -0.40   14.21
  10  17   0    6.76   21.26
  10  18   0  176.16   53.69
  10  19   0  349.08   71.79
  10  19   0  113.21   99.18
  10  20   0  360.22  100.32
 -10 -20   0  342.78  146.37
  10  21   0  670.17  115.23
 -10 -21   0  340.23  167.60
  10  21   0  308.95  166.70
  10  22   0   46.98   24.98
 -10 -22   0   54.29   23.62
  10  23   0    5.23   20.12
 -10 -23   0   -2.39    8.80
  10  24   0   -0.86   24.89
  10  25   0   54.73   32.05
  11   0   0   -0.16   19.72
 -11   0   0    2.94   14.44
 -11  -1   0   77.82   26.36
 -11  -1   0   34.47   24.14
  11   1   0   79.26   29.19
  11   2   0  197.47   64.36
 -11  -2   0  149.42   63.69
  11   2   0  131.19   64.35
  11   3   0   23.68   21.62
 -11  -3   0    8.94   11.12
 -11  -3   0    3.41    8.74
  11   3   0    2.30   17.49
  11   4   0   45.14   18.50
 -11  -4   0   19.70   14.78
 -11  -4   0   31.79   14.67
  11   4   0   44.73   20.13
  11   5   0  130.58   64.27
 -11  -5   0  183.92   64.36
 -11  -5   0  138.02   65.59
  11   5   0  219.42   65.23
  11   6   0  290.16  306.69
 -11  -6   0  832.24  307.46
 -11  -6   0  655.92  309.67
  11   6   0 1411.91  308.17
  11   7   0 1487.26  503.43
 -11  -7   0 1544.67  503.19
 -11  -7   0  819.65  505.56
  11   7   0 1869.56  503.11
  11   8   0  971.12  222.47
 -11  -8   0  776.82  221.83
 -11  -8   0  259.02  223.95
  11   8   0  823.28  221.97
  11   9   0  370.53  144.69
 -11  -9   0  331.10  144.63
  11   9   0  348.80  144.93
  11  10   0  245.70  102.77
 -11 -10   0  253.19  102.96
  11  10   0  254.23  103.48
  11  11   0  118.60   26.66
  11  11   0  144.51   33.47
 -11 -11   0   60.93   30.61
 -11 -11   0   42.53   31.53
  11  11   0  118.50   33.59
  11  12   0 2030.71  531.06
  11  12   0 1737.61  807.67
  11  13   0  185.48   27.00
  11  13   0  155.74   25.19
 -11 -13   0    8.57   20.73
  11  13   0   86.26   25.19
  11  14   0  236.99   52.17
  11  14   0  100.89   65.93
  11  15   0  581.36  131.92
  11  15   0  318.84  192.15
  11  16   0   33.75   17.90
  11  17   0   -4.17   15.02
  11  17   0   -2.20   22.41
  11  18   0  699.64  160.13
  11  18   0  390.10  234.51
  11  19   0   -1.98   15.54
  11  19   0   18.61   23.83
  11  20   0  474.46   82.19
 -11 -20   0  239.55  116.24
  11  20   0  211.44  115.57
  11  21   0   12.35   16.41
 -11 -21   0    1.97   11.54
  11  22   0   87.60   24.85
 -11 -22   0   48.72   24.88
  11  23   0  149.35   51.17
  11  24   0   41.08   28.60
  12   0   0  698.67  213.86
 -12   0   0  304.74  212.26
  12   1   0  373.94  105.92
 -12  -1   0  208.77  104.31
 -12  -1   0  218.24  104.61
  12   1   0  227.30  106.12
  12   2   0  424.11  169.22
 -12  -2   0  392.54  169.29
 -12  -2   0  394.45  169.90
  12   2   0  421.07  169.64
  12   3   0    2.63   19.01
 -12  -3   0    0.92   13.19
 -12  -3   0   -6.33    9.57
  12   3   0    3.74   19.53
  12   4   0  544.37  158.31
 -12  -4   0  466.62  158.84
 -12  -4   0  280.47  159.86
  12   5   0   17.34   19.18
 -12  -5   0   41.94   18.09
 -12  -5   0   43.52   17.79
  12   5   0   62.42   23.02
  12   6   0   78.34   24.43
 -12  -6   0   69.15   22.79
 -12  -6   0   38.05   23.27
  12   6   0   78.83   26.89
  12   7   0    1.80   15.27
 -12  -7   0    1.45   12.19
 -12  -7   0    1.33    8.54
  12   7   0   -7.44   19.48
  12   8   0  447.67   85.13
 -12  -8   0  154.01   83.22
 -12  -8   0  114.99   85.47
  12   8   0  338.87   84.95
  12   9   0  109.98   42.57
 -12  -9   0   74.87   41.14
  12   9   0  134.20   43.82
  12  10   0  280.74   58.82
 -12 -10   0   80.12   58.64
  12  10   0  287.86   60.00
  12  11   0   39.74   22.46
  12  11   0   90.66   27.90
  12  11   0   67.04   28.90
  12  12   0  302.10  101.33
  12  12   0  432.74  147.62
  12  13   0   47.50   21.39
  12  13   0   34.16   26.65
  12  13   0   25.80   16.84
  12  14   0 3199.08  635.99
  12  14   0 1434.51  965.13
  12  15   0   11.61   16.58
  12  15   0   -6.63   20.75
  12  16   0 1609.33  406.96
  12  16   0 1208.64  615.16
  12  17   0   42.69   19.90
  12  17   0   35.07   24.70
  12  18   0   19.77   15.98
  12  18   0   12.63   23.94
  12  19   0   15.84   15.94
  12  19   0   -6.88   26.80
  12  20   0  272.61   80.27
  12  21   0   14.30   17.47
 -12 -21   0   13.65   11.99
  12  22   0    8.67   22.84
 -12 -22   0   -1.36   11.47
  12  23   0   12.96   24.44
  13   0   0    4.33   18.84
 -13   0   0   -2.74   10.70
  13   1   0   -0.59   18.99
 -13  -1   0   -1.34   11.78
  13   1   0    3.85   18.40
  13   2   0   17.25   18.59
 -13  -2   0   13.58    9.81
 -13  -2   0    4.60   10.38
  13   2   0   15.55   21.07
  13   3   0  126.29   34.95
 -13  -3   0   86.26   32.83
 -13  -3   0   45.12   32.99
  13   3   0  128.85   36.34
  13   4   0   30.84   16.73
 -13  -4   0   15.34   11.88
 -13  -4   0   11.47    9.64
  13   4   0   37.39   19.93
  13   5   0   76.75   23.64
 -13  -5   0   53.83   21.14
 -13  -5   0   33.24   21.72
  13   5   0   73.59   30.26
  13   6   0  710.60  333.26
 -13  -6   0  759.48  333.93
 -13  -6   0  538.46  335.63
  13   6   0 1683.22  334.58
  13   7   0  973.84  243.79
 -13  -7   0  603.45  243.61
 -13  -7   0  315.75  245.31
  13   7   0 1019.13  243.95
  13   8   0  154.70   40.24
 -13  -8   0   52.24   40.43
  13   8   0  197.36   42.62
  13   9   0  788.94  265.63
  13   9   0  481.20  265.35
  13  10   0    5.45   22.42
  13  10   0   16.13   25.36
  13  11   0    4.44   14.48
  13  11   0   28.12   29.40
  13  11   0   13.19   16.09
  13  12   0  843.90  316.98
  13  12   0 1637.43  479.80
  13  12   0 1098.75  478.65
  13  13   0  622.48  132.79
  13  13   0  415.82  192.30
  13  13   0  302.21  191.52
  13  14   0   20.09   21.04
  13  14   0   12.57   20.59
  13  15   0  778.19  163.15
  13  15   0  331.95  237.72
  13  16   0    4.04   14.68
  13  17   0   98.26   32.84
  13  18   0  479.21  112.67
  13  18   0  263.71  165.90
  13  19   0   90.62   25.40
  13  19   0   19.81   60.35
  13  20   0   44.78   21.97
  13  21   0   63.67   25.70
 -13 -21   0   19.94   14.95
  13  22   0    9.67   16.73
  14   0   0  321.98   88.27
 -14   0   0  117.02   85.90
  14   1   0   13.44   19.53
 -14  -1   0    2.88   10.32
 -14  -1   0    7.13   10.41
  14   1   0   12.11   19.34
  14   2   0  232.43   51.48
 -14  -2   0   53.86   46.93
 -14  -2   0   54.13   49.85
  14   2   0  233.23   51.73
  14   3   0  172.60   37.46
 -14  -3   0   29.85   36.43
  14   3   0  173.46   41.07
  14   4   0  891.79  227.45
 -14  -4   0  192.58  228.40
  14   4   0 1081.78  228.54
  14   5   0   14.63   15.90
  14   5   0   13.63   21.00
  14   6   0  550.29  248.40
  14   6   0  635.23  248.19
  14   7   0  136.48   64.63
  14   7   0  179.17   65.50
  14   8   0 1049.72  358.79
  14   8   0  658.11  358.40
  14   9   0 1746.92  610.03
  14   9   0 1177.26  609.86
  14  10   0 1345.94  569.29
  14  11   0   20.24   15.39
  14  11   0   17.23   29.01
  14  11   0   14.03   27.53
  14  12   0    5.13   13.77
  14  12   0   20.21   28.06
  14  12   0   18.54   28.57
  14  13   0   38.32   19.91
  14  13   0   38.63   31.85
  14  14   0   30.59   21.01
  14  14   0    6.43   31.62
  14  15   0   66.87   28.29
  14  16   0    7.55   15.43
  14  17   0   -1.02   14.02
  14  17   0   11.03   44.45
  14  18   0    5.14   15.27
  14  18   0   16.49   56.28
  14  19   0  213.03   64.22
  14  20   0  115.83   43.56
  14  21   0  303.76   91.19
  15   0   0  100.03   47.55
  15   1   0 3061.48 1175.70
  15   1   0 2456.46 1175.16
  15   2   0  493.02  355.23
  15   2   0 1212.78  357.00
  15   3   0   36.96   31.60
  15   3   0  114.03   39.17
  15   4   0  268.27  109.30
  15   4   0  255.82  111.19
  15   5   0   97.66   81.67
  15   5   0  326.19   85.01
  15   6   0  104.40   49.36
  15   6   0  137.98   50.95
  15   7   0   10.29   19.87
  15   8   0   91.63   39.65
  15   9   0   86.90   29.93
  15   9   0   29.15   26.76
  15  10   0  102.10   47.63
  15  11   0   33.33   16.55
  15  11   0   30.45   30.44
  15  11   0   12.53   29.24
  15  12   0  183.16   64.92
  15  12   0  370.98   94.37
  15  12   0  152.63   94.23
  15  13   0    5.49   14.71
  15  13   0   -3.63   19.28
  15  13   0    7.47   31.80
  15  14   0  120.07   36.86
  15  14   0   84.17   55.39
  15  15   0  183.32   40.02
  15  15   0   38.92   59.24
  15  16   0    4.47   15.62
  15  16   0   14.74   37.36
  15  17   0   19.24   15.62
  15  18   0  245.43   72.89
  15  19   0  151.36   51.56
  15  20   0   40.24   28.83
  16   0   0  690.59  290.78
  16   1   0  227.19  103.51
  16   1   0  276.63  105.94
  16   2   0   40.02   25.97
  16   2   0   61.24   35.09
  16   3   0 2175.05 1033.31
  16   3   0 2723.19 1033.42
  16   4   0  764.34  357.49
  16   4   0  950.15  357.89
  16   5   0   16.83   18.55
  16   5   0   20.85   37.25
  16   6   0   63.77   29.31
  16   7   0   35.86   22.47
  16   7   0   34.53   27.98
  16   8   0   72.03   35.47
  16   8   0   86.31   36.66
  16   9   0    2.72   25.17
  16   9   0    1.93   39.14
  16  10   0  229.48   61.09
  16  10   0   64.12   62.29
  16  11   0   32.08   18.05
  16  11   0   69.50   32.62
  16  11   0   17.40   33.66
  16  12   0    8.04   12.76
  16  12   0    1.16   29.03
  16  13   0   93.00   31.30
  16  13   0   86.14   42.84
  16  14   0   21.39   20.82
  16  15   0   12.72   19.61
  16  15   0    8.34   39.45
  16  16   0   28.60   18.52
  16  17   0    4.99   17.55
  16  18   0    3.48   15.10
  16  19   0    6.89   24.97
  17   0   0    0.91   21.89
  17   1   0   26.52   20.92
  17   1   0   14.10   25.87
  17   2   0   10.08   20.02
  17   2   0    3.91   30.76
  17   3   0  253.76  196.68
  17   3   0  736.11  199.15
  17   4   0  462.10  190.64
  17   4   0  449.42  191.43
  17   5   0 1336.57  551.68
  17   5   0 1259.65  551.42
  17   6   0  161.06   66.05
  17   6   0  157.98   69.85
  17   7   0   72.30   33.58
  17   8   0   -2.11   24.72
  17   8   0    6.47   34.23
  17   9   0    6.44   26.02
  17  10   0  306.24  100.74
  17  10   0  176.32  101.39
  17  11   0   90.53   40.06
  17  11   0  204.26   58.85
  17  12   0   64.28   29.10
  17  12   0  134.13   43.93
  17  13   0   33.77   19.59
  17  13   0   40.05   30.36
  17  14   0    1.97   19.00
  17  14   0  -14.82   42.28
  17  15   0   15.45   19.99
  17  15   0   16.73   54.22
  17  16   0   -4.77   15.41
  17  17   0    4.41   14.37
  18   0   0   24.48   21.85
  18   1   0   -0.74   22.04
  18   1   0    0.23   23.02
  18   2   0  390.96  268.96
  18   2   0  934.39  270.96
  18   3   0  852.80  359.06
  18   3   0  850.65  359.21
  18   4   0   41.35   32.18
  18   4   0  113.21   41.82
  18   5   0  154.21   67.13
  18   5   0  173.32   74.96
  18   6   0   24.08   22.58
  18   6   0   18.28   33.02
  18   7   0   10.41   24.20
  18   7   0   26.41   34.95
  18   8   0  263.44  129.77
  18   8   0  362.47  133.32
  18   9   0   72.06   34.34
  18   9   0   34.15   40.39
  18  10   0   47.35   33.70
  18  10   0   18.85   38.01
  18  11   0   70.52   24.18
  18  11   0   91.77   39.05
  18  11   0   26.71   44.63
  18  12   0   36.25   17.88
  18  12   0   65.33   33.42
  18  12   0   11.71   41.22
  18  13   0   50.83   25.69
  18  13   0   96.31   35.04
  18  13   0   -3.08   44.84
  18  14   0    9.60   19.03
  18  15   0    7.07   17.65
  18  16   0    2.09   15.75
  19   0   0    0.12   22.04
  19   1   0   10.85   20.70
  19   1   0    5.33   21.59
  19   2   0    3.04   19.61
  19   2   0   44.39   23.84
  19   3   0   39.47   23.40
  19   3   0   36.50   24.66
  19   4   0   10.96   22.04
  19   4   0   -1.11   23.51
  19   5   0    4.24   23.29
  19   5   0    4.52   29.60
  19   6   0   16.45   24.30
  19   6   0   14.65   35.94
  19   7   0    7.07   26.46
  19   7   0    2.27   36.53
  19   8   0   -2.91   28.32
  19   8   0    0.40   38.37
  19   9   0  159.85   59.25
  19   9   0   99.16   62.14
  19  10   0  123.91   48.47
  19  10   0   69.07   53.58
  19  11   0  291.52   77.07
  19  11   0  295.40  111.57
  19  11   0  165.78  118.60
  19  12   0   39.90   24.08
  19  12   0   45.12   40.90
  19  13   0    0.05   14.41
  20   0   0    5.54   21.41
  20   1   0   12.89   21.10
  20   1   0   21.08   22.17
  20   2   0   49.84   24.71
  20   2   0   24.33   24.11
  20   3   0    6.39   23.15
  20   3   0    4.56   23.23
  20   4   0   15.96   24.38
  20   4   0   34.61   25.16
  20   5   0   37.95   38.49
  20   5   0   98.92   42.42
  20   6   0   -3.94   27.78
  20   6   0    2.04   35.98
  20   7   0    1.31   28.03
  20   7   0   23.66   37.03
  20   8   0  181.53   64.38
  20   8   0   37.65   53.00
  20   9   0   73.60   45.85
  20   9   0   15.73   49.94
  20  10   0  201.73   68.86
  20  10   0  278.77  100.52
  20  11   0   19.58   23.90
  20  11   0   93.57   44.29
  21   0   0   -2.07   38.09
  21   1   0   16.71   42.81
  21   1   0    8.51   31.52
  21   2   0   -6.13   44.98
  21   2   0    0.86   33.07
  21   3   0   49.83   46.85
  21   3   0   21.86   33.93
  21   4   0  -16.36   48.82
  21   4   0   20.18   43.88
  21   5   0   60.04   55.04
  21   5   0   60.94   49.30
  21   6   0    6.16   52.82
  21   6   0    1.58   45.96
  21   7   0   -2.49   50.84
  21   8   0   26.55   45.98
   0   0   1    2.62    3.48
   0   0  -1    0.52    2.69
   0   1   1   74.29   27.60
   0  -1   1   57.68   27.80
   0   1  -1   74.82   27.89
   0   2   1    3.36    3.08
   0  -2  -1    5.83    6.89
   0  -2  -1    0.04    1.90
   0  -2   1    0.21    1.49
   0   2  -1    1.06    4.06
   0   3   1  267.14   88.20
   0  -3  -1  186.98   60.08
   0  -3   1  253.80   60.89
   0  -3   1  178.11   89.13
   0   3  -1  218.54   89.29
   0  -4  -1    4.11    6.67
   0  -4   1    5.24    7.05
   0  -4   1    3.11    4.04
   0   4  -1   18.52    5.58
   0  -5  -1  166.17   41.16
   0  -5   1  128.10   41.15
   0  -5   1  182.79   58.42
   0   5  -1  118.54   59.20
   0   6   1   20.00    9.26
   0  -6  -1   12.51    9.72
   0  -6   1    4.13   10.11
   0  -6   1    4.84    4.71
   0   6  -1    6.50    9.05
   0   6  -1    6.77    4.70
   0   7   1 1109.20  386.59
   0  -7  -1 1524.19  386.95
   0  -7   1 1382.38  386.79
   0  -7   1 1809.90  590.95
   0   7  -1 1205.09  386.76
   0   7  -1 1204.21  591.50
   0   8   1    5.87   12.03
   0  -8  -1    8.08   10.94
   0   8  -1    1.15    9.94
   0   8  -1   14.86    5.86
   0   9   1  359.97  106.18
   0  -9  -1  440.45  106.35
   0  -9   1  387.44  105.92
   0   9  -1  397.58  106.01
   0   9  -1  362.82  158.88
   0  10   1   14.19   12.61
   0 -10  -1    4.91   10.50
   0 -10   1    1.51    9.88
   0  10  -1    3.06    9.16
   0  11   1    4.32   12.43
   0 -11  -1   11.49   10.21
   0 -11   1    2.24    9.89
   0  11  -1    8.93    9.28
   0  11  -1    3.77    4.45
   0  12   1    4.28   12.28
   0 -12  -1   -0.16   11.54
   0 -12   1    0.92   10.20
   0  12  -1    3.48   11.27
   0  12  -1   -0.40    4.64
   0  13   1 1175.35  321.53
   0 -13  -1 1199.47  321.85
   0 -13   1 1122.60  321.55
   0  13  -1 1106.56  321.65
   0  14   1   15.06   15.23
   0 -14  -1   14.54   14.30
   0 -14   1   30.80   16.17
   0  14  -1    2.03   13.52
   0  14  -1   36.56   11.76
   0  15   1 6830.05 1790.96
   0 -15  -1 5824.60 1791.75
   0 -15   1 7752.94 1791.84
   0  15  -1 5225.92 1791.24
   0 -16  -1    5.21   14.66
   0 -16   1    3.25   17.76
   0  16  -1    0.27   11.46
   0  16  -1    3.36    4.91
   0 -17  -1   44.61   27.30
   0 -17   1  127.22   32.08
   0  17  -1   80.65   33.68
   0 -18   1    1.33   20.64
   0  18  -1    0.51    6.25
   0  19  -1   81.46   33.77
   0 -20   1   -4.48   19.07
   0 -21   1  471.43  128.14
   0  21  -1  438.44  188.76
   0  23  -1  323.57  136.80
   0  25  -1   60.52   29.93
   1   0   1   64.28   25.29
  -1  -1  -1  295.69  110.23
  -1  -1   1  267.22  110.64
   1   1  -1  350.56  110.37
   1  -1  -1  223.26  110.73
   1  -1   1  213.24  110.61
   1   2   1   78.73   23.89
   1   2   1   85.55   32.06
  -1  -2  -1   83.28   23.63
  -1  -2   1   66.46   23.31
  -1  -2   1   80.78   32.92
   1   2  -1  117.34   32.64
   1  -2  -1   61.74   32.87
   1  -2   1   74.65   32.92
   1   3   1 1336.05  295.41
   1   3   1 1633.37  448.53
  -1  -3  -1 1301.45  295.20
  -1  -3   1  938.15  294.82
  -1  -3   1 1162.34  450.90
   1   3  -1 1349.52  295.29
   1   3  -1 1189.29  450.55
   1  -3  -1  900.39  450.74
   1  -3   1  786.93  450.76
   1   4   1  218.84   53.51
  -1  -4  -1  222.26   53.23
  -1  -4   1  155.19   52.64
  -1  -4   1  184.50   77.95
   1   4  -1  260.91   54.30
   1   4  -1  156.74   77.95
   1  -4  -1  201.24   77.95
  -1   4  -1  205.69   53.35
   1   5   1   20.37   10.59
   1   5   1   28.81    6.45
  -1  -5  -1   20.81    9.30
  -1  -5   1   31.33   10.12
  -1  -5   1   14.54    8.05
   1   5  -1   38.47   11.89
   1   5  -1   19.84    8.77
   1  -5  -1   25.71    8.53
  -1   5   1   20.40   14.61
  -1   5  -1   23.20   12.18
   1   6   1 1240.91  398.85
   1   6   1 1455.10  606.02
  -1  -6  -1 1575.50  398.99
  -1  -6  -1 1505.46  609.01
  -1  -6   1 1298.68  398.63
  -1  -6   1 1609.53  610.26
   1   6  -1 2212.26  399.82
   1   6  -1 1234.53  610.24
   1  -6  -1 1411.04  610.02
  -1   6   1 1531.79  399.10
  -1   6  -1 1198.99  398.67
   1   7   1 3172.73  950.97
   1   7   1 2920.83 1455.16
  -1  -7  -1 3840.01  951.06
  -1  -7  -1 5254.90 1455.96
  -1  -7   1 2785.56  950.69
  -1  -7   1 3909.36 1459.42
   1   7  -1 5180.92  951.91
   1   7  -1 3021.20 1459.48
   1  -7  -1 2956.95 1459.24
  -1   7   1 3585.77  951.11
  -1   7  -1 3450.84  950.80
   1   8   1 2027.33  470.58
  -1  -8  -1 2145.06  470.54
  -1  -8  -1 1675.11  715.81
  -1  -8   1 1318.89  470.02
  -1  -8   1 1857.65  719.39
   1   8  -1 2129.44  471.21
   1   8  -1 1417.11  719.86
   1  -8  -1 1754.79  719.71
  -1   8   1 2178.28  470.74
  -1   8  -1 1468.40  470.17
   1   9   1   67.43   21.83
  -1  -9  -1   69.42   20.55
  -1  -9  -1   40.45   21.37
  -1  -9   1   51.12   20.16
  -1  -9   1   86.53   23.75
   1   9  -1   93.64   24.70
   1   9  -1   47.68   24.43
   1  -9  -1   60.89   24.39
  -1   9   1   39.88   20.29
  -1   9  -1   64.68   20.39
   1  10   1  254.62   63.76
  -1 -10  -1  248.03   63.22
  -1 -10  -1  158.59   90.90
  -1 -10   1  238.81   62.99
  -1 -10   1  298.32   91.31
   1  10  -1  269.16   64.30
   1  10  -1  236.89   91.81
   1 -10  -1  170.23   91.77
  -1  10   1  224.45   63.09
  -1  10  -1  204.49   62.87
   1  11   1  181.75   49.51
  -1 -11  -1  191.29   48.65
  -1 -11   1  209.02   48.63
   1  11  -1  225.06   49.61
   1  11  -1  153.50   68.27
   1 -11  -1  155.64   68.35
  -1  11   1  124.98   47.90
  -1  11  -1  207.08   48.30
   1  12   1  117.99   33.44
  -1 -12  -1  120.27   32.74
  -1 -12   1  134.18   32.75
   1  12  -1  111.58   32.33
   1  12  -1   91.86   40.90
  -1  12   1   75.23   30.77
  -1  12  -1  105.80   31.16
   1  13   1 2725.77  634.00
  -1 -13  -1 3789.54  634.92
   1  13  -1 2480.31  633.71
   1  13  -1 2500.94  969.58
   1 -13  -1 1805.81  969.79
  -1  13   1 2707.98  633.14
  -1  13  -1 2424.37  633.45
   1  14   1  857.85  208.91
  -1 -14  -1 1003.08  209.50
  -1 -14  -1  705.36  314.86
  -1 -14   1  949.27  209.11
   1  14  -1  692.25  208.07
   1 -14  -1  727.90  315.08
  -1  14   1  794.17  207.76
  -1  14  -1  606.77  207.84
   1  15   1  120.90   22.08
  -1 -15  -1   -6.38   17.36
  -1 -15  -1    6.85    8.91
  -1 -15   1   10.63   20.48
   1  15  -1    3.26   12.89
   1 -15  -1   24.65   10.16
   1 -15  -1    6.80   14.72
  -1  15   1  109.33   16.39
  -1  15  -1    4.27   12.84
   1  16   1  681.33  175.05
  -1 -16  -1  366.35  174.39
   1  16  -1  363.84  173.87
   1  16  -1  767.02  262.81
   1 -16  -1  625.18  263.16
   1 -16  -1  564.38  259.43
  -1  16   1  695.95  174.59
  -1  16  -1  388.64  174.08
   1  17   1  434.00  102.06
  -1 -17  -1  218.55  101.15
  -1 -17   1  315.37  101.84
   1  17  -1  248.62  101.15
   1  17  -1  460.16  150.26
   1 -17  -1  326.43  150.44
   1 -17  -1  432.44  147.00
  -1  17   1  362.12  102.16
  -1  17  -1  211.52  101.25
   1  18   1   21.09   15.64
  -1 -18   1   27.66   16.28
   1  18  -1    4.62   15.05
   1 -18  -1   20.43    8.83
   1 -18  -1   24.20   16.81
  -1  18   1   29.81   19.25
  -1 -19   1   60.34   22.64
   1  19  -1   60.77   22.78
   1 -19  -1   49.17   22.30
   1  20  -1    3.45    9.65
   1 -20  -1    7.58    7.62
  -1  20   1   17.04   23.18
   1 -21  -1  312.19  130.09
  -1  21   1  287.94   91.68
   1 -22  -1  244.00   96.94
  -1  22   1  171.25   69.48
   1  23  -1  195.53   84.73
  -1  23   1  219.58   62.93
   1  24  -1   55.76   27.87
   1  25  -1   12.41   18.02
   2   0   1   10.79    6.23
  -2   0  -1    2.03    3.53
   2   0  -1    5.63    5.43
   2   1   1 1340.74  343.38
   2   1   1 2253.35  524.14
  -2  -1  -1 1584.84  524.71
  -2  -1   1 1144.45  524.69
   2   1  -1  390.22  524.75
   2   2   1   99.79   29.01
  -2  -2  -1   72.32   29.21
  -2  -2   1   67.44   29.59
   2   2  -1   63.15   29.36
   2  -2   1   88.92   25.95
   2   3   1  122.64   35.49
   2   3   1  176.89   47.81
  -2  -3  -1  126.33   49.89
  -2  -3   1  110.70   50.55
   2   3  -1   73.88   49.69
   2  -3  -1  154.83   50.08
   2   4   1  244.12   84.98
  -2  -4  -1  201.39   59.68
  -2  -4  -1  193.57   86.87
  -2  -4   1  179.13   87.91
   2   4  -1  168.38   59.50
   2   4  -1  226.43   87.44
   2  -4  -1  256.04   87.35
   2  -4   1  216.41   84.30
   2   5   1   62.99   21.12
   2   5   1   77.35   24.50
  -2  -5  -1   72.97   21.02
  -2  -5  -1   58.69   26.18
  -2  -5   1   61.60   27.44
   2   5  -1   70.93   27.26
   2  -5  -1   91.24   26.92
  -2   5   1   62.02   22.15
  -2   5  -1   43.80   20.39
   2   6   1   37.79   12.13
  -2  -6  -1   38.61   15.57
  -2  -6  -1   32.56   11.01
  -2  -6   1   32.09   14.07
  -2  -6   1   24.67   14.81
   2   6  -1   35.62   13.55
   2   6  -1   42.41   14.62
   2  -6  -1   60.59   14.44
  -2   6   1   27.58   15.73
  -2   6  -1   29.23   15.41
   2   7   1  454.22  154.41
   2   7   1  457.99  230.11
  -2  -7  -1  770.09  155.43
  -2  -7  -1  429.27  229.96
  -2  -7   1  557.41  154.52
  -2  -7   1  484.86  234.02
   2   7  -1  581.15  154.65
   2   7  -1  647.04  233.74
   2  -7  -1  553.78  233.52
  -2   7   1  641.26  155.92
  -2   7  -1  594.01  154.95
   2   8   1 1430.65  543.07
   2   8   1 1537.76  828.12
  -2  -8  -1 3379.62  544.38
  -2  -8   1 2083.08  543.38
  -2  -8   1 1824.89  832.19
   2   8  -1 2219.32  543.56
   2   8  -1 2426.23  831.86
   2  -8  -1 1639.93  832.00
  -2   8   1 1856.73  543.54
  -2   8  -1 2021.52  543.23
   2   9   1 3371.59 1065.90
  -2  -9  -1 5684.09 1067.01
  -2  -9   1 3758.11 1066.16
   2   9  -1 3623.91 1066.17
   2   9  -1 4630.02 1636.02
   2  -9  -1 3526.84 1636.38
  -2   9   1 2926.39 1066.13
  -2   9  -1 3044.62 1065.86
   2  10   1  668.75  275.04
  -2 -10  -1 1260.16  276.07
  -2 -10   1 1033.53  275.51
  -2 -10   1  837.10  419.43
   2  10  -1 1194.66  419.29
   2 -10  -1  977.25  419.72
   2 -10  -1 1332.51  416.75
  -2  10   1  930.88  275.65
  -2  10  -1  785.22  275.18
   2  11   1   16.62   12.19
  -2 -11  -1   18.48   12.72
  -2 -11  -1    9.66    6.69
  -2 -11   1   21.20   13.22
  -2 -11   1   16.87    6.80
   2  11  -1   10.36   11.38
   2  11  -1   22.34    7.67
   2 -11  -1   17.54    7.02
   2 -11  -1   21.72   11.97
  -2  11   1   12.01   12.26
  -2  11  -1   17.06   11.46
   2  12   1   28.53   14.05
  -2 -12  -1   27.05   13.28
  -2 -12   1   17.62   14.02
  -2 -12   1   25.87    9.12
   2  12  -1   25.83   15.62
   2  12  -1   22.23    9.87
   2 -12  -1   20.68    9.79
   2 -12  -1   21.08   13.08
  -2  12   1   46.21   15.08
  -2  12  -1   24.30   13.17
   2  13   1  163.67   50.41
  -2 -13  -1  117.63   49.34
  -2 -13   1  138.71   50.34
   2  13  -1  159.22   50.60
   2 -13  -1  181.94   70.66
   2 -13  -1  219.42   68.18
  -2  13   1  154.31   50.02
  -2  13  -1  141.29   49.63
   2  14   1  217.40   63.14
  -2 -14  -1  175.60   61.57
  -2 -14  -1  157.86   89.39
  -2 -14   1  217.62   61.86
   2  14  -1  301.07   64.86
   2 -14  -1  250.20   89.77
   2 -14  -1  250.73   86.64
  -2  14   1  269.51   62.39
  -2  14  -1  179.63   62.06
   2  15   1  530.48  114.55
  -2 -15  -1  303.37  112.21
  -2 -15  -1  366.92  167.84
  -2 -15   1  425.95  112.36
   2  15  -1  469.10  114.20
   2  15  -1  385.73  167.47
   2 -15  -1  413.83  168.15
   2 -15  -1  537.63  164.51
  -2  15   1  350.25  112.62
  -2  15  -1  365.84  113.14
   2  16   1   30.69   25.13
  -2 -16  -1   12.49   11.29
   2  16  -1    5.70   15.07
   2  16  -1   17.05    7.36
  -2  16   1   13.98   13.69
  -2  16  -1    6.95   11.65
   2  17   1  225.02   48.91
  -2 -17  -1   86.99   43.93
   2  17  -1  125.08   45.04
   2 -17  -1  204.33   59.01
  -2  17   1  184.36   45.07
  -2  17  -1   94.30   43.90
   2  18   1  134.56   40.34
  -2 -18  -1   93.69   49.13
   2 -18  -1  147.04   49.38
   2 -18  -1  104.93   47.60
  -2  18   1  109.84   37.55
   2  19   1   17.48   20.25
  -2 -19  -1    3.30   17.68
   2  19  -1   28.80   11.75
   2 -19  -1   18.01    8.63
  -2  19   1   25.02   17.52
   2  20   1  818.62  236.07
   2  20  -1  813.29  356.45
   2 -20  -1  846.48  357.32
  -2  20   1  918.47  237.23
   2  21   1  531.47  249.41
   2  21  -1  943.84  378.91
   2 -21  -1  918.86  379.30
  -2  21   1 1004.03  252.39
  -2  22   1  352.03  105.01
   2  23  -1    4.96   15.00
  -2  23   1  -13.85   24.29
   2  24  -1   52.04   27.75
  -2  24   1   64.65   28.03
   2  25  -1    7.94   24.08
   2 -25  -1    2.90   12.80
  -2  25   1   -2.24   19.50
   3   0   1 2963.19 1264.15
  -3  -1  -1 5710.08 2806.46
   3  -1  -1 9999.00 2803.38
   3   2   1 2656.48  891.36
   3   2   1 2364.54 1364.09
  -3  -2  -1 2802.06 1367.30
  -3  -2   1 3549.10 1367.40
   3   2  -1 3142.56 1367.33
   3  -2  -1 4248.36 1364.13
   3  -2   1 4019.85 1364.26
   3   3   1  735.46  171.58
   3   3   1  579.09  256.69
  -3  -3  -1  589.78  258.03
  -3  -3   1  633.37  258.83
   3   3  -1  552.43  258.53
   3  -3  -1  741.70  255.49
   3   4   1   50.44   13.46
  -3  -4   1   31.81   13.52
   3   4  -1   30.74   12.18
   3   4  -1   30.34   14.20
   3  -4  -1   49.32   12.75
  -3   4  -1   41.10   10.49
   3   5   1  231.06   66.31
   3   5   1  275.64   94.25
  -3  -5  -1  189.31   94.54
  -3  -5   1  160.67   98.06
   3   5  -1  211.18   65.83
   3   5  -1  338.98   97.85
   3  -5  -1  346.78   95.23
  -3   5  -1  176.73   93.96
   3   6   1  290.10   82.52
   3   6   1  333.30  119.45
  -3  -6  -1  354.76  118.65
  -3  -6   1  264.00  122.64
   3   6  -1  277.13   81.95
   3   6  -1  259.34  121.93
   3  -6  -1  476.91  119.86
   3   7   1  880.11  242.81
   3   7   1 1031.04  365.62
  -3  -7  -1  850.24  366.28
  -3  -7   1  580.76  369.58
   3   7  -1  829.42  242.53
   3   7  -1 1416.07  368.84
   3  -7  -1 1077.00  366.11
  -3   7   1  855.82  242.83
  -3   7  -1  822.27  242.68
   3   8   1   21.06   12.88
  -3  -8  -1   15.21    8.40
  -3  -8   1   23.31    9.72
   3   8  -1   23.54   12.99
   3  -8  -1   24.67   10.36
   3  -8  -1   33.10   14.26
  -3   8   1   40.18   18.37
  -3   8  -1   16.03   14.03
   3   9   1  931.90  307.94
   3   9   1 1041.75  465.76
  -3  -9  -1  581.41  466.86
  -3  -9   1  926.63  469.90
   3   9  -1 1090.02  308.15
   3   9  -1 1249.99  468.91
   3  -9  -1 1655.74  469.23
   3  -9  -1 1330.70  466.28
  -3   9   1  992.09  308.59
  -3   9  -1  866.41  307.94
   3  10   1   65.69   32.35
  -3 -10   1   95.61   43.97
   3  10  -1  114.37   33.38
   3 -10  -1  128.57   43.63
   3 -10  -1  165.36   42.34
  -3  10   1   85.93   32.67
  -3  10  -1   91.95   31.73
   3  11   1  104.77   39.11
  -3 -11  -1  146.38   39.54
  -3 -11   1  139.38   54.68
   3  11  -1  109.83   39.14
   3 -11  -1  130.09   54.46
   3 -11  -1  215.00   52.56
  -3  11   1   79.46   39.22
  -3  11  -1  103.61   38.52
   3  12   1   46.80   19.30
  -3 -12  -1   14.64   17.88
  -3 -12   1   53.91   21.14
   3  12  -1   50.91   18.86
   3  12  -1   63.91   21.11
   3 -12  -1   50.27   21.41
   3 -12  -1  101.21   21.68
  -3  12   1   44.58   19.86
  -3  12  -1   50.31   18.77
   3  13   1    6.15   11.52
  -3 -13  -1    3.46    9.11
  -3 -13   1    5.34    4.37
   3  13  -1    3.38    9.77
   3 -13  -1    4.54    3.54
   3 -13  -1    3.26   11.74
  -3  13   1    7.87   11.69
  -3  13  -1    1.35   10.64
   3  14   1   -0.31   12.17
  -3 -14  -1    1.08    3.84
  -3 -14  -1    1.14    9.90
  -3 -14   1   -0.09    5.24
   3  14  -1    7.18   10.64
   3  14  -1    6.60    6.86
   3 -14  -1    5.94    3.79
   3 -14  -1    4.10   12.13
  -3  14   1    0.19   13.34
  -3  14  -1    2.08   11.13
   3  15   1  174.90   55.72
  -3 -15  -1   87.03   75.28
   3  15  -1  161.57   55.81
   3 -15  -1  215.98   79.21
   3 -15  -1  233.97   75.97
  -3  15   1  144.84   55.55
  -3  15  -1  144.76   55.39
   3  16   1   63.26   31.46
   3  16  -1   88.00   33.63
   3 -16  -1  102.76   38.29
   3 -16  -1   83.36   35.56
  -3  16   1   72.33   30.11
  -3  16  -1   71.69   31.18
   3  17   1   37.27   21.74
  -3 -17  -1   33.70   13.30
   3  17  -1   27.02   19.40
   3  17  -1   32.67   14.20
   3 -17  -1   31.61   13.47
   3 -17  -1   30.78   14.44
  -3  17   1   33.62   17.23
   3  18   1  246.71   53.93
  -3 -18  -1  118.93   69.80
   3  18  -1  201.39   69.74
   3 -18  -1  179.62   70.02
  -3  18   1  209.65   50.48
   3  19   1  234.02   62.41
  -3 -19  -1  125.29   81.05
   3  19  -1  214.36   81.77
  -3  19   1  165.07   58.66
   3  20   1  268.66   63.61
  -3 -20  -1  153.75   84.22
   3  20  -1  218.34   83.99
   3 -20  -1  239.65   84.44
  -3  20   1  155.41   59.83
   3  21   1   99.10   35.42
  -3  21   1   86.25   34.02
   3  22   1   21.13   20.61
   3  22  -1   23.80   21.00
   3 -22  -1   29.26   13.67
  -3  22   1   17.06   23.90
   3  23  -1   76.97   40.44
   3 -23  -1   88.71   36.45
  -3  23   1  121.78   38.71
   3  24  -1    3.52   21.47
  -3  24   1    3.14   27.03
  -3  25   1    3.20   23.28
  -3  26   1   17.71   28.35
   4   0   1    0.04    9.71
  -4   0  -1   -0.05    6.02
   4   0  -1   -0.32    8.50
  -4   0   1    1.51    9.93
   4   1   1   91.24   39.97
  -4  -1  -1   72.35   41.89
  -4  -1   1  121.82   42.18
   4   1  -1   77.19   42.01
   4  -1  -1  143.77   40.27
  -4   1   1   82.92   40.18
  -4   1  -1  106.92   39.37
   4  -1   1  185.39   39.87
   4   2   1 3207.48 1779.87
  -4  -2  -1 4701.54 1781.57
  -4  -2   1 2724.68 1782.06
   4   2  -1 5555.32 1781.61
   4  -2  -1 5035.20 1779.54
  -4   2  -1 6081.60 1778.48
   4  -2   1 3547.81 1778.82
   4   3   1 1422.12 1038.96
  -4  -3  -1 1773.38 1041.04
  -4  -3   1 3740.65 1041.37
   4   3  -1 1204.43 1041.20
   4  -3  -1 3497.47 1039.21
  -4   3  -1 3084.80 1038.34
   4  -3   1 3599.47 1038.47
   4   4   1 1282.05  294.64
  -4  -4  -1 1277.53  446.79
  -4  -4   1  677.17  448.76
   4   4  -1  768.66  293.74
   4   4  -1 1307.58  448.57
   4  -4  -1 1586.90  446.06
  -4   4  -1  549.07  445.52
   4  -4   1 1801.63  445.81
   4   5   1 1509.70  434.43
   4   5   1 1320.72  659.72
  -4  -5  -1 1408.24  659.98
  -4  -5   1 1452.63  663.24
   4   5  -1 1512.55  434.02
   4   5  -1 1560.18  662.92
   4  -5  -1 1699.69  660.17
   4  -5   1 2132.59  660.62
   4   6   1  618.34  183.04
   4   6   1  705.59  274.42
  -4  -6  -1  377.05  273.58
  -4  -6   1  583.80  277.61
   4   6  -1  529.32  182.76
   4   6  -1  743.81  276.98
   4  -6  -1  906.10  274.23
   4  -6   1  754.40  276.29
   4   7   1  822.74  271.99
   4   7   1 1202.50  410.81
  -4  -7  -1  623.01  411.38
  -4  -7   1  922.80  414.69
   4   7  -1  757.35  271.58
   4   7  -1 1133.67  414.03
   4  -7  -1 1545.62  411.29
  -4   7  -1  697.24  410.76
   4  -7   1 1020.43  413.93
   4   8   1  341.55  107.98
   4   8   1  432.37  158.01
  -4  -8  -1  242.90  158.83
  -4  -8   1  405.50  161.56
   4   8  -1  304.64  107.51
   4   8  -1  467.74  161.22
   4  -8  -1  339.81  157.80
  -4   8   1  335.90  107.93
  -4   8  -1  262.29  107.47
   4   9   1  243.90   79.12
   4   9   1  291.14  113.83
  -4  -9   1  209.78  117.00
   4   9  -1  345.20  116.61
   4  -9  -1  405.35  113.68
  -4   9   1  406.52   81.75
  -4   9  -1  269.32   79.70
   4  10   1   63.70   21.90
  -4 -10  -1   22.16   20.21
  -4 -10   1   46.29   23.52
   4  10  -1   46.15   19.42
   4  10  -1   49.44   23.17
   4 -10  -1   85.45   23.27
   4 -10  -1   85.75   21.61
  -4  10   1   99.72   24.91
  -4  10  -1   41.44   20.24
   4  11   1   35.86   16.58
  -4 -11  -1   10.38   13.41
  -4 -11   1   37.23   15.61
   4  11  -1   37.02   15.72
   4  11  -1   41.08   16.57
   4 -11  -1   47.53   15.50
   4 -11  -1   56.91   17.14
  -4  11   1   32.58   16.51
  -4  11  -1   36.18   14.82
   4  12   1   19.30   12.58
  -4 -12  -1    9.11    6.98
   4  12  -1   18.99    8.91
   4 -12  -1   12.33    6.67
   4 -12  -1   12.04    9.76
  -4  12   1   15.74   12.40
  -4  12  -1   12.95    9.93
   4  13   1  298.33   69.10
  -4 -13  -1  143.78   96.79
  -4 -13   1  248.51  100.47
   4  13  -1  239.12   69.14
   4 -13  -1  199.98  100.28
   4 -13  -1  289.27   97.43
  -4  13   1  310.30   69.58
  -4  13  -1  278.75   68.74
   4  14   1   71.17   23.73
  -4 -14   1   75.77   27.63
   4  14  -1   53.36   23.25
   4  14  -1   74.84   27.98
   4 -14  -1   68.32   27.90
   4 -14  -1   59.58   25.89
  -4  14   1   61.87   24.11
  -4  14  -1   36.48   22.73
   4  15   1   97.95   24.98
  -4 -15  -1   32.22   26.96
  -4 -15   1   95.19   29.12
   4  15  -1   59.32   23.94
   4  15  -1   76.20   29.28
   4 -15  -1   61.37   29.23
   4 -15  -1   59.19   27.27
  -4  15   1   67.42   25.29
  -4  15  -1   66.34   25.00
   4  16   1   -1.97   13.21
  -4 -16  -1    8.30    5.98
   4  16  -1   -2.96   10.32
   4  16  -1    0.35    9.20
   4 -16  -1    0.58    4.97
   4 -16  -1   -3.48   11.55
  -4  16   1    3.09   13.85
  -4  16  -1    0.09   13.74
   4  17   1   97.17   29.50
  -4 -17  -1   50.82   34.84
   4  17  -1   59.74   31.39
   4  17  -1  117.66   35.69
   4 -17  -1  103.87   35.19
   4 -17  -1   84.54   35.03
  -4  17   1   72.56   28.81
   4  18   1    5.99   16.73
   4  18  -1    8.41   10.58
   4 -18  -1    4.80    5.35
  -4  18   1    2.82   15.62
   4  19   1  543.46  103.35
   4  19  -1  399.47  146.33
   4 -19  -1  307.93  146.93
  -4  19   1  346.60  100.09
   4  20   1   -1.14   21.25
   4  20  -1    2.85   11.18
   4 -20  -1    2.52    7.20
  -4  20   1   -0.39   17.69
   4  21   1    7.62   25.76
   4  21  -1    2.78   15.98
   4 -21  -1    0.17   10.13
  -4  21   1    6.68   17.20
   4  22   1  138.67   58.11
   4 -22  -1  191.17   77.49
  -4  22   1  158.15   56.45
   4  23   1  721.83  206.65
   4  23  -1  615.86  309.80
   4 -23  -1  779.29  310.37
  -4  23   1  653.75  207.53
   4  24   1   10.16   20.12
   4  24  -1   16.96   27.90
   4 -24  -1   21.21   12.06
  -4  24   1   23.19   25.93
  -4  25   1  201.19   67.23
  -4  26   1   98.09   41.68
  -4  27   1  110.07   43.06
   5   0   1 1220.30  377.02
  -5   0  -1  793.18  379.76
  -5   0   1  935.39  376.48
   5   1   1  776.27  313.43
  -5  -1  -1  762.89  314.92
  -5  -1   1  661.77  315.11
   5   1  -1  393.43  312.57
   5  -1  -1 1085.84  312.43
  -5   1   1  850.47  312.24
  -5   1  -1  865.33  312.33
   5   2   1  391.69   85.18
  -5  -2  -1  216.89   85.56
  -5  -2   1   80.84   85.81
   5   2  -1  190.46   85.12
   5  -2  -1  315.97   83.34
  -5   2   1  324.12   84.23
  -5   2  -1  228.84   83.27
   5   3   1   48.19   18.75
  -5  -3  -1   41.26   16.73
  -5  -3   1   35.23   17.26
   5   3  -1   48.12   17.80
   5  -3  -1   50.75   16.20
  -5   3   1   39.06   17.33
  -5   3  -1   26.46   14.45
   5  -3   1   69.03   15.89
   5   4   1 5469.44 2330.48
  -5  -4  -1 4551.03 2330.83
   5   4  -1 6230.90 2333.19
   5  -4  -1 6340.13 2331.02
  -5   4  -1 3689.76 2330.89
   5   5   1 2999.32  815.81
   5   5   1 3969.10 1247.73
  -5  -5  -1 4622.57 1247.70
  -5  -5   1 2693.04 1250.92
   5   5  -1 1619.02 1250.12
   5  -5  -1 4697.92 1248.48
  -5  -6  -1 2081.27  783.75
  -5  -6   1  789.26  786.91
   5   6  -1 1861.63  514.34
   5   6  -1 2546.99  786.64
   5  -6  -1 2311.59  784.49
  -5   6  -1 1404.19  783.38
   5  -6   1 3227.22  785.10
   5   7   1    7.29   12.40
  -5  -7  -1    6.85    8.39
  -5  -7   1   11.45    5.50
   5   7  -1   18.20   10.26
   5   7  -1   17.67   10.56
   5  -7  -1   20.76    8.82
   5   8   1  162.95   49.21
   5   8   1  210.77   67.16
  -5  -8  -1   86.90   67.25
  -5  -8   1  144.11   70.01
   5   8  -1  156.25   48.38
   5   8  -1  225.44   69.59
   5  -8  -1  194.54   67.28
   5   9   1    7.50    9.94
   5   9   1    3.77   10.92
  -5  -9  -1    0.59   10.13
  -5  -9   1    0.47    6.22
   5   9  -1    3.55    7.23
   5   9  -1    1.60    7.60
   5  -9  -1    3.93    9.50
  -5   9   1    1.22   10.84
  -5   9  -1    0.06    8.66
   5  10   1   14.24   12.59
  -5 -10   1   13.66    8.66
   5  10  -1   21.60   10.77
   5  10  -1   29.88   10.17
   5 -10  -1   35.27   10.15
  -5  10   1   28.12   17.68
  -5  10  -1   23.93   14.06
   5  11   1  318.53   75.68
   5  11   1  278.54  106.17
  -5 -11  -1  108.32  106.59
  -5 -11   1  210.97  110.18
   5  11  -1  230.63   74.65
   5  11  -1  356.81  109.52
   5 -11  -1  376.39  107.44
  -5  11   1  398.68   77.67
  -5  11  -1  251.70   75.34
   5  12   1    2.37   12.54
  -5 -12   1    0.92    4.36
   5  12  -1    3.78   10.22
   5  12  -1    1.69    8.66
   5 -12  -1    4.05    5.57
  -5  12   1   -1.70   11.87
  -5  12  -1    0.38    9.15
   5  13   1  167.44   44.61
  -5 -13  -1   62.28   58.25
   5  13  -1  138.59   44.08
   5  13  -1  185.57   61.05
   5 -13  -1  159.84   60.84
   5 -13  -1  139.65   58.61
  -5  13   1  111.92   43.88
  -5  13  -1  112.29   43.16
   5  14   1   19.06   15.81
  -5 -14  -1    7.59   13.48
   5  14  -1   24.31   15.28
   5  14  -1   36.13   13.61
   5 -14  -1   38.28   12.16
   5 -14  -1   37.28   13.01
  -5  14   1   26.50   15.63
  -5  14  -1   17.94   13.60
   5  15   1  115.29   37.77
  -5 -15  -1   57.61   47.88
  -5 -15   1  129.97   50.67
   5  15  -1   97.24   37.55
   5  15  -1  172.91   50.96
   5 -15  -1   99.82   50.56
   5 -15  -1  141.10   48.33
  -5  15   1  164.95   39.51
  -5  15  -1   90.95   37.49
   5  16   1    0.73   12.82
  -5 -16   1   -0.04    7.48
   5  16  -1    2.82   14.07
   5  16  -1    0.21    8.82
   5 -16  -1    3.71   16.97
  -5  16   1   -4.76   12.37
  -5  16  -1    7.65   12.82
   5  17   1   92.83   27.31
  -5 -17  -1   73.72   31.89
  -5 -17  -1   49.79   32.90
  -5 -17   1   70.84   32.31
   5 -17  -1   87.54   32.35
  -5  17   1   79.51   27.92
   5  18   1   17.32   16.80
  -5 -18  -1    6.27    6.46
  -5 -18  -1    7.00   20.48
   5 -18  -1   16.71    6.92
  -5  18   1   27.54   15.51
   5  19   1    5.52   16.34
   5 -19  -1    4.75    5.83
  -5  19   1    0.22   16.42
   5  20   1   25.04   20.29
  -5 -20  -1    7.63    8.03
   5  20  -1   12.61   17.86
   5 -20  -1   16.86    8.25
  -5  20   1   22.70   18.81
   5  21   1   96.66   32.10
  -5 -21  -1   23.80   17.13
   5  21  -1   50.42   22.14
   5 -21  -1   48.58   17.80
  -5  21   1   56.27   23.04
   5  22   1  121.44   40.83
   5  22  -1   89.11   46.50
   5 -22  -1  102.94   42.73
  -5  22   1  103.09   36.46
   5  23   1    6.71   25.52
   5  23  -1   10.10   24.36
   5 -23  -1    3.95   11.09
  -5  23   1    2.87   18.07
   5  24   1  425.39  146.73
   5  24  -1  355.51  216.67
   5 -24  -1  580.84  217.23
  -5  24   1  446.14  147.42
   5  25   1   75.25   35.41
  -5  25   1  131.33   41.05
  -5  26   1  428.14  128.95
   6   0   1   34.67   15.37
  -6   0  -1   11.10   12.23
   6   0  -1   16.68   10.59
  -6   0   1   78.43   15.65
   6   1   1  403.17  300.87
  -6  -1  -1  737.42  302.40
  -6  -1   1  664.98  302.74
   6   1  -1  436.24  299.95
   6  -1  -1 1237.10  300.19
  -6   1   1  973.49  299.75
  -6   1  -1  632.33  300.20
   6  -1   1  880.11  300.05
   6   2   1 2534.95  836.14
  -6  -2  -1 1576.89  837.98
  -6  -2   1 1878.78  838.46
   6   2  -1 1392.95  835.43
   6  -2  -1 2673.39  835.54
  -6   2   1 2203.38  835.25
  -6   2  -1 1492.68  836.00
   6  -2   1 3036.71  835.47
   6   3   1 1796.85  746.62
  -6  -3  -1 2178.17  747.89
  -6  -3   1 1456.94  749.52
   6   3  -1 2825.19  747.23
   6  -3  -1 2002.81  746.23
  -6   3   1 1698.70  746.29
  -6   3  -1 1069.71  746.55
   6   4   1 2050.43  683.94
  -6  -4  -1  863.94  683.97
  -6  -4   1 1548.75  687.25
   6   4  -1  897.09  685.68
   6  -4  -1 2852.05  684.41
  -6   4   1 2033.86  684.49
  -6   4  -1 1206.77  684.02
   6  -4   1 2243.77  684.85
   6   5   1  780.53  277.41
  -6  -5  -1  301.32  276.39
  -6  -5   1  740.91  279.72
   6   5  -1  721.65  279.59
   6  -5  -1  786.48  277.13
  -6   5   1  614.77  277.66
  -6   5  -1  387.02  276.65
   6   6   1  108.77   35.11
   6   6   1  102.61   46.22
  -6  -6  -1   78.68   45.32
  -6  -6   1  109.56   47.62
   6   6  -1  124.41   47.47
   6  -6  -1  142.17   45.20
  -6   6  -1   66.88   44.27
   6  -6   1  169.96   45.32
   6   7   1 1171.38  275.86
   6   7   1 1014.58  415.04
  -6  -7  -1  401.60  415.40
  -6  -7   1  787.42  418.51
   6   7  -1  999.05  275.01
   6   7  -1 1330.10  418.00
   6  -7  -1 1373.16  415.59
  -6   7  -1  575.62  414.59
   6  -7   1 1142.11  417.63
   6   8   1  153.29   35.88
   6   8   1  111.37   43.13
  -6  -8  -1   78.97   43.86
  -6  -8   1   88.48   45.37
   6   8  -1  162.47   34.25
   6   8  -1  150.77   45.30
   6  -8  -1  141.33   43.09
   6  -8   1   92.01   44.75
   6   9   1    4.68   10.40
  -6  -9  -1    9.93    9.10
  -6  -9   1    0.55    4.54
   6   9  -1   13.03    8.50
   6   9  -1    1.64    9.54
   6  -9  -1   -0.66   10.44
  -6   9   1    4.49   12.41
   6  -9   1    0.71    2.43
   6  10   1   53.46   22.42
   6  10   1   43.64   24.90
  -6 -10  -1   40.03   26.19
  -6 -10   1   56.97   27.38
   6  10  -1   77.35   21.33
   6  10  -1   90.17   27.50
   6 -10  -1  112.19   25.88
  -6  10   1   67.92   23.17
  -6  10  -1   72.99   22.18
   6  11   1  223.21   74.44
  -6 -11  -1  100.24   74.90
   6  11  -1  111.70   53.16
   6  11  -1  212.74   76.81
   6 -11  -1  190.10   74.30
  -6  11   1  131.79   55.83
  -6  11  -1  153.22   54.83
  -6  11  -1  338.67   73.82
   6  12   1  768.08  187.19
   6  12   1  472.92  278.10
  -6 -12  -1  271.17  279.37
   6  12  -1  397.18  186.27
   6  12  -1 1060.86  281.80
   6 -12  -1  473.32  278.62
  -6  12   1  708.71  188.17
  -6  12  -1  542.14  187.07
   6  13   1  862.25  254.00
  -6 -13  -1  624.10  382.59
  -6 -13   1  677.00  385.78
   6  13  -1  835.83  253.86
   6  13  -1 1427.45  385.03
   6 -13  -1  968.38  385.38
   6 -13  -1 1213.80  382.32
  -6  13   1 1098.14  254.29
  -6  13  -1  764.14  253.63
   6  14   1   53.47   18.54
  -6 -14  -1   19.58   17.40
  -6 -14   1   31.77   16.13
   6  14  -1   27.82   17.12
   6  14  -1   52.13   17.38
   6 -14  -1   51.61   16.03
   6 -14  -1   39.47   16.26
  -6  14   1   42.50   17.30
  -6  14  -1   31.41   18.80
   6  15   1   14.06   13.94
  -6 -15  -1    2.70   13.55
   6  15  -1   11.36   10.33
   6 -15  -1   15.15    6.51
   6 -15  -1    4.56   11.42
  -6  15   1    9.34   13.41
  -6  15  -1    6.12   15.22
   6  16   1  634.37  161.52
  -6 -16  -1  391.25  239.99
  -6 -16   1  454.07  242.57
   6  16  -1  551.98  162.45
   6  16  -1  709.19  241.85
   6 -16  -1  552.28  242.65
   6 -16  -1  847.90  239.90
  -6  16   1  885.36  162.40
   6  17   1  798.14  228.71
   6  17  -1 1004.29  345.81
   6 -17  -1  756.78  346.68
  -6  17   1  762.32  229.07
   6  18   1  546.78  109.40
  -6 -18  -1  356.75  160.02
   6  18  -1  597.03  160.33
   6 -18  -1  287.47  160.61
  -6  18   1  365.78  108.72
   6  19   1   41.24   22.65
  -6 -19  -1   26.53   16.94
   6  19  -1   40.84   19.69
   6 -19  -1   50.11   17.12
  -6  19   1   51.43   20.27
   6  20   1   17.54   17.33
   6  20  -1    5.96   15.22
   6 -20  -1   21.98   10.87
  -6  20   1   10.94   15.85
   6  21   1   22.09   21.49
  -6 -21  -1   17.31   11.83
   6  21  -1   29.58   22.73
   6 -21  -1   32.35   12.14
  -6  21   1   24.87   20.55
   6  22   1  115.45   41.34
   6  22  -1  104.22   49.36
   6 -22  -1  109.04   45.48
  -6  22   1  105.84   37.59
   6  23   1  264.70   69.57
   6  23  -1  175.03   90.86
  -6  23   1  251.67   65.81
   6  24   1    7.94   27.55
   6 -24  -1    7.71   14.76
  -6  24   1    5.78   19.11
   6  25   1  107.09   46.51
   6 -25  -1  134.05   56.37
  -6  25   1  119.69   46.92
   6  26   1   26.86   24.93
  -6  26   1   20.52   37.78
   7   0   1   72.11   38.70
  -7   0  -1   84.01   38.90
   7   0  -1  162.14   37.23
  -7   0   1   90.98   37.29
   7   1   1  329.50   80.41
  -7  -1  -1  111.30   80.99
  -7  -1   1  179.01   81.32
   7   1  -1  259.35   80.62
   7  -1  -1  227.04   79.43
  -7   1   1  205.45   79.60
  -7   1  -1  134.53   79.12
   7  -1   1  279.57   78.82
   7   2   1    7.32   15.82
  -7  -2  -1    2.36    7.24
  -7  -2   1    2.29    6.69
   7   2  -1   17.34   16.18
  -7   2   1   25.49   14.18
  -7   2  -1    5.75   11.34
   7   3   1  397.28  226.38
  -7  -3  -1  482.70  227.46
  -7  -3   1  485.23  229.13
   7   3  -1  647.13  226.50
   7  -3  -1  612.54  226.33
  -7   3   1  639.77  226.37
   7  -3   1  695.93  226.50
   7   4   1  251.29   76.88
  -7  -4  -1   97.50   75.62
  -7  -4   1  177.07   78.79
   7   4  -1  125.32   76.09
   7  -4  -1  304.93   76.32
  -7   4   1  281.52   76.60
  -7   4  -1  141.61   75.39
   7   5   1  596.45  291.75
  -7  -5  -1  253.38  290.63
  -7  -5   1  649.49  294.38
   7   5  -1 1078.59  292.25
   7  -5  -1  645.48  291.23
  -7   5   1  790.79  291.81
  -7   5  -1  464.84  291.03
   7  -5   1 1087.50  291.59
   7   6   1  218.15   73.40
  -7  -6  -1   74.93   70.56
  -7  -6   1  202.15   73.83
   7   6  -1  216.54   73.09
   7  -6  -1  195.76   71.57
  -7   6   1  165.42   72.22
  -7   6  -1   87.46   70.87
   7   7   1  240.17   90.96
   7   7   1  314.27  132.11
  -7  -7  -1  135.02  132.05
   7   7  -1  476.90  134.37
   7  -7  -1  420.98  132.32
   7  -7   1  283.15  134.42
   7   8   1  586.00   95.60
   7   8   1  447.96  136.19
  -7  -8  -1  371.78  136.92
  -7  -8   1  134.44  138.80
   7   8  -1  477.22   94.01
   7   8  -1  446.93  138.39
   7  -8  -1  541.76  136.40
  -7   8  -1  228.47  135.17
   7   9   1  117.67   27.12
   7   9   1   83.25   24.12
  -7  -9  -1   32.74   21.78
  -7  -9   1   33.68   22.83
   7   9  -1  106.27   21.55
   7   9  -1   55.61   23.38
   7  -9  -1  122.41   23.46
   7  10   1 2642.01  564.61
   7  10   1 2294.30  860.43
  -7 -10  -1 1251.34  860.69
  -7 -10   1 1857.02  863.76
   7  10  -1 2780.84  564.50
   7  10  -1 1758.90  862.53
   7 -10  -1 4204.86  860.69
  -7  10   1 2786.99  564.64
  -7  10  -1 2147.64  563.88
   7 -10   1 1497.36  862.70
   7  11   1 1131.67  293.55
  -7 -11  -1  477.55  443.75
  -7 -11   1  879.66  446.81
   7  11  -1  949.08  293.07
   7  11  -1 1475.68  445.97
   7 -11  -1 1856.25  443.67
  -7  11   1 1123.67  293.67
  -7  11  -1  942.21  293.54
   7  12   1 1347.18  411.19
   7  12  -1 1039.19  410.63
   7 -12  -1 1709.12  623.82
  -7  12   1 2281.94  412.84
  -7  12  -1 1379.24  411.80
   7  13   1   81.90   16.79
   7  13   1   16.68   15.51
   7  13  -1   12.94   14.94
   7 -13  -1    6.67   14.29
  -7  13   1    2.86   19.78
  -7  13  -1   12.62   19.96
   7  14   1  237.29   46.16
  -7 -14   1  123.21   63.18
   7  14  -1  148.07   45.71
   7 -14  -1  312.19   63.34
  -7  14   1  181.72   45.82
  -7  14  -1  104.66   46.17
   7  15   1    2.16   14.78
  -7 -15   1   21.01    7.05
   7  15  -1    4.27   16.58
   7  15  -1   17.09   12.90
   7 -15  -1    8.74    7.19
   7 -15  -1    5.11   17.02
  -7  15   1    4.17   13.13
   7  16   1   84.04   25.74
   7  16  -1   67.06   28.53
   7 -16  -1   66.90   28.04
  -7  16   1   64.91   25.35
   7  17   1  388.97  108.72
  -7 -17  -1  153.70  158.02
   7  17  -1  387.07  159.10
   7 -17  -1  395.72  159.69
  -7  17   1  528.34  109.39
   7  18   1  423.17  111.57
   7  18  -1  484.84  163.84
   7 -18  -1  318.32  164.47
  -7  18   1  588.06  112.03
   7  19   1  295.67   72.85
  -7 -19  -1  197.90  102.96
   7 -19  -1  257.87  103.62
  -7  19   1  266.61   72.42
   7  20   1  591.36  171.57
  -7 -20  -1  297.30  256.50
   7  20  -1  798.91  256.71
   7 -20  -1  762.77  257.22
  -7  20   1  670.76  171.50
   7  21   1   82.02   30.26
   7  21  -1  115.15   43.49
   7 -21  -1   77.70   34.25
  -7  21   1   58.72   30.12
   7  22   1   10.00   20.10
  -7 -22  -1    2.66    8.86
   7  22  -1    4.70   24.26
   7 -22  -1   11.23    8.05
  -7  22   1   11.01   19.47
   7  23   1    5.91   24.15
   7 -23  -1    2.16    8.20
  -7  23   1   -4.70   19.51
   7  24   1   78.56   35.08
  -7  24   1   47.51   26.70
   7  25   1   65.07   39.24
  -7  25   1   79.55   36.43
   7  26   1   -2.97   27.37
  -7  26   1   12.17   34.26
   8   0   1   15.07   15.99
  -8   0  -1   10.66    7.50
   8   0  -1   14.56   14.85
  -8   0   1    4.92   10.88
   8   1   1  249.03  113.40
  -8  -1  -1  206.34  114.76
  -8  -1   1  252.99  114.90
   8   1  -1  387.68  114.10
   8  -1  -1  373.79  112.66
  -8   1   1  262.18  112.80
  -8   1  -1  206.71  113.10
   8  -1   1  398.21  112.73
   8   2   1    5.73   16.09
  -8  -2  -1    4.72    7.80
  -8  -2   1    6.24    7.26
   8   2  -1   52.24   14.08
   8  -2  -1    1.23   11.47
  -8   2   1    3.37   13.13
   8   3   1   90.06   30.24
  -8  -3  -1   76.54   27.51
  -8  -3   1   58.22   28.77
   8   3  -1   42.94   29.11
   8  -3  -1   85.60   26.89
  -8   3   1   92.76   28.26
   8  -3   1   83.59   26.55
   8   4   1   40.36   19.21
  -8  -4  -1   10.66   13.28
  -8  -4   1   30.18   15.25
   8   4  -1   32.99   15.13
   8  -4  -1   61.20   14.77
  -8   4   1   47.04   17.84
  -8   4  -1   33.23   15.52
   8  -4   1   52.42   15.55
   8   5   1   11.36   16.09
  -8  -5  -1    9.17    9.19
  -8  -5   1   12.08    7.65
   8   5  -1   18.64   13.87
   8  -5  -1   21.82   12.87
  -8   5   1   21.09   14.33
  -8   5  -1   17.84   12.30
   8  -5   1   26.17    7.59
   8   6   1  265.05   77.79
  -8  -6  -1  101.85   75.55
  -8  -6   1  138.16   78.89
   8  -6  -1  264.46   76.70
  -8   6   1  258.47   77.27
  -8   6  -1  116.51   76.16
   8  -6   1  271.47   77.20
   8   7   1  420.98  136.66
   8   7   1  690.87  202.61
  -8  -7  -1  220.46  201.72
  -8  -7   1  534.28  205.15
   8   7  -1  340.63  202.22
   8  -7  -1  688.45  202.48
  -8   7   1  602.16  203.03
  -8   7  -1  251.69  201.56
   8   8   1  639.91  215.88
   8   8   1  740.53  323.94
   8   8  -1  579.85  215.38
   8  -8  -1 1105.38  324.23
  -8   8  -1  481.78  323.38
   8  -8   1  909.13  326.74
   8   9   1  895.26  216.06
   8   9   1  703.12  322.07
   8   9  -1  954.08  215.28
   8   9  -1  989.85  323.38
   8  -9  -1 1056.83  322.23
   8  -9   1  544.02  324.83
   8  10   1   87.89   22.14
   8  10   1   43.60   17.47
  -8 -10  -1   24.78   16.77
  -8 -10   1   13.68   16.45
   8  10  -1   67.91   20.42
   8  10  -1  106.56   19.99
   8 -10  -1   88.19   19.19
   8 -10   1   38.93   16.17
   8  11   1 3273.35  724.87
  -8 -11  -1 2524.77 1107.37
  -8 -11   1 1578.32 1110.10
   8  11  -1 3040.83  724.70
   8  11  -1 5967.64 1108.71
   8 -11  -1 4729.31 1106.80
  -8  11   1 2182.31  724.35
  -8  11  -1 2261.69  724.22
   8  12   1  829.35  165.88
   8  12   1  830.26  245.82
  -8 -12  -1  508.23  246.99
  -8 -12   1  354.36  249.43
   8  12  -1  917.92  166.25
   8  12  -1 1581.29  248.81
   8 -12  -1 1267.07  246.89
  -8  12   1 1082.86  167.09
   8 -12   1  281.06  249.32
   8  13   1   13.70   24.27
   8  13   1   15.93   29.10
  -8 -13  -1    6.68   32.23
  -8 -13   1   76.22   29.68
   8  13  -1   14.01   28.33
   8  13  -1  213.20   31.37
   8 -13  -1   12.78   28.54
  -8  13   1  176.92   32.74
  -8  13  -1   10.58   31.21
   8  14   1  439.80   89.89
  -8 -14  -1  271.75  129.78
  -8 -14   1  228.74  131.31
   8  14  -1  346.93   90.17
   8  14  -1  827.73  131.28
   8 -14  -1  348.27  128.08
  -8  14   1  493.60   90.97
  -8  14  -1  280.59   90.98
   8 -14   1  231.16  131.02
   8  15   1   15.64   14.38
  -8 -15  -1   14.44   22.28
  -8 -15   1   10.73    8.49
   8  15  -1   21.17   13.90
  -8  15   1   20.71   14.81
   8  16   1  516.19  172.94
   8  16  -1  633.05  258.52
   8 -16  -1  687.33  259.90
  -8  16   1  424.21  172.72
   8  17   1    0.05   14.18
   8  17  -1    5.06   19.20
   8 -17  -1   -2.03    7.37
  -8  17   1   -3.30   14.53
   8  18   1  288.78   88.77
   8  18  -1  308.20  126.60
   8 -18  -1  301.25  128.11
  -8  18   1  327.34   88.40
   8  19   1  750.88  229.24
   8  19  -1 1024.33  344.16
  -8  19   1  641.63  229.08
   8  20   1   -0.29   18.08
  -8 -20  -1   -0.89   10.50
   8 -20  -1    1.41    7.00
  -8  20   1   -0.61   15.52
   8  21   1   15.39   20.03
  -8 -21  -1    9.50    9.21
   8  21  -1    8.13   27.12
   8 -21  -1   14.20    8.38
  -8  21   1   15.76   15.95
   8  22   1  163.61   54.27
   8  22  -1  106.26   72.18
   8 -22  -1  186.29   73.53
  -8  22   1  149.96   53.88
   8  23   1   -0.74   21.01
   8  23  -1    3.01   35.69
   8 -23  -1    1.51    8.36
  -8  23   1  -13.79   23.83
   8  24   1   -0.18   31.91
   8 -24  -1    1.94    8.70
  -8  24   1    9.78   20.34
   8  25   1   64.55   48.36
  -8  25   1   63.24   33.21
   9   0   1  338.97  107.09
  -9   0  -1  222.52  107.60
   9   0  -1  349.57  105.75
  -9   0   1  182.54  105.73
   9   1   1  755.15  271.65
  -9  -1  -1  489.10  273.51
  -9  -1   1  554.29  273.50
   9   1  -1  947.52  272.15
   9  -1  -1  965.63  271.22
  -9   1   1  637.90  271.43
  -9   1  -1  472.90  271.34
   9  -1   1  795.31  271.38
   9   2   1  314.39   88.47
  -9  -2  -1  169.33   88.89
  -9  -2   1  158.97   89.58
   9   2  -1  361.32   89.21
   9  -2  -1  252.79   87.18
  -9   2   1  250.55   87.53
  -9   2  -1  132.67   87.04
   9  -2   1  241.85   87.60
   9   3   1 1933.24  494.27
  -9  -3  -1  628.32  494.63
  -9  -3   1  986.47  496.52
   9   3  -1 1464.97  494.97
   9  -3  -1 1399.83  493.75
  -9   3   1 1497.50  493.53
  -9   3  -1  739.08  493.41
   9  -3   1 1344.71  494.65
   9   4   1  531.68  164.64
  -9  -4  -1  249.25  163.53
  -9  -4   1  336.22  166.41
   9   4  -1  290.75  164.85
   9  -4  -1  580.95  164.36
  -9   4   1  449.25  163.45
  -9   4  -1  282.39  163.44
   9  -4   1  578.47  164.72
   9   5   1   29.76   21.99
  -9  -5  -1   26.40   16.28
  -9  -5   1   42.02   18.12
   9   5  -1   36.64   20.47
   9  -5  -1   63.55   17.47
  -9   5   1   74.78   20.55
  -9   5  -1   25.27   19.08
   9  -5   1   65.75   15.62
   9   6   1  420.89  105.02
  -9  -6  -1  137.67  102.55
  -9  -6   1  140.10  106.29
   9   6  -1  447.56  105.35
   9  -6  -1  315.78  103.88
  -9   6   1  321.19  104.17
   9  -6   1  311.23  104.17
   9   7   1  182.16   64.05
  -9  -7  -1   72.06   61.98
  -9  -7   1  145.93   65.33
   9   7  -1  104.83   63.82
   9  -7  -1  213.31   63.38
  -9   7   1  201.27   64.14
  -9   7  -1   84.40   62.22
   9  -7   1  194.96   64.99
   9   8   1  208.50   54.68
   9   8   1  195.29   75.38
  -9  -8  -1   95.71   74.18
  -9  -8   1  118.42   77.11
   9   8  -1  262.05   75.50
   9  -8  -1  211.14   74.73
  -9   8   1  194.89   74.81
   9  -8   1  259.08   76.93
   9   9   1  749.05  132.26
   9   9   1  535.61  193.53
  -9  -9   1  247.01  196.26
   9   9  -1  622.60  131.21
   9   9  -1  755.30  193.86
   9  -9  -1  931.92  194.21
  -9   9  -1  402.35  192.84
   9  -9   1  399.18  195.94
   9  10   1   53.18   21.73
   9  10   1   36.93   16.02
  -9 -10  -1   24.00   14.23
   9  10  -1   58.74   16.94
   9  10  -1   38.80   16.76
   9 -10  -1   35.18   13.53
   9 -10   1   16.95   11.62
   9  11   1  427.07   64.96
   9  11   1  238.18   88.20
  -9 -11  -1  188.36   89.21
  -9 -11   1   83.45   90.74
   9  11  -1  450.12   66.32
   9  11  -1  298.77   88.27
   9 -11  -1  582.92   89.93
  -9  11   1  335.13   63.66
   9 -11   1  205.14   89.93
   9  12   1  448.95   95.78
   9  12   1  389.78  137.80
  -9 -12  -1  397.82  140.06
  -9 -12   1  144.66  141.20
   9  12  -1  457.31   96.28
   9  12  -1  564.79  138.68
   9 -12  -1  772.61  139.56
  -9  12   1  541.45   96.16
  -9  12  -1  442.62   96.38
   9  13   1  338.56   52.13
   9  13   1  293.51   70.00
  -9 -13  -1  154.18   71.26
  -9 -13   1   82.65   72.11
   9  13  -1  256.15   53.00
   9  13  -1  324.60   70.65
   9 -13  -1  482.51   72.30
  -9  13   1  386.47   55.01
  -9  13  -1  228.08   55.95
   9 -13   1  112.06   72.09
   9  14   1 1842.53  261.54
   9  14   1 1152.34  390.82
  -9 -14  -1  518.54  391.53
  -9 -14   1  652.79  394.65
   9  14  -1 1709.65  392.17
  -9  14   1 1886.89  262.95
   9  15   1    7.62   13.55
   9  15  -1   13.29   15.56
  -9  15   1   21.52   16.90
  -9  15  -1    2.61   12.32
   9  16   1  663.82  212.75
   9  16  -1  740.18  317.78
   9 -16  -1  909.50  321.22
  -9  16   1  547.28  212.30
  -9  16  -1  312.29  316.08
   9  17   1  898.86  250.83
   9  17  -1  902.58  376.45
   9 -17  -1  959.05  379.26
  -9  17   1  649.79  250.44
   9  18   1  106.45   41.74
   9  18  -1   86.62   52.26
   9 -18  -1  149.27   53.23
  -9  18   1  106.27   40.82
   9  19   1   60.82   22.93
   9 -19  -1   45.22   19.97
  -9  19   1   57.70   22.32
   9  20   1   56.39   22.70
  -9 -20  -1   19.86   17.10
   9  20  -1   45.59   26.13
   9 -20  -1   48.62   16.96
  -9  20   1   36.26   20.77
   9  21   1  162.60   38.70
  -9 -21  -1   54.09   45.77
   9 -21  -1  129.15   46.10
  -9  21   1  111.71   36.88
   9  22   1  118.71   28.93
  -9 -22  -1   35.57   25.56
   9  22  -1   58.21   35.26
   9 -22  -1   62.09   24.06
  -9  22   1   85.08   24.62
   9  23   1    7.34   18.71
   9 -23  -1    0.19    8.72
  -9  23   1    4.88   20.24
   9  24   1    5.51   31.70
  -9  24   1   -6.74   24.53
   9  25   1   28.95   39.39
  -9  25   1   31.42   28.39
  10   0   1   20.76   18.56
 -10   0  -1    7.43    7.38
  10   0  -1    6.09    9.98
 -10   0   1    3.39   14.90
  10   1   1  154.43   69.43
 -10  -1  -1  147.17   70.07
 -10  -1   1  165.58   70.24
  10   1  -1  111.18   69.32
  10  -1  -1  266.62   68.62
 -10   1   1  159.46   68.61
 -10   1  -1  149.32   68.39
  10  -1   1  245.34   68.43
  10   2   1   40.09   23.61
 -10  -2  -1   37.20   18.63
 -10  -2   1   36.00   19.16
  10   2  -1   72.56   24.10
  10  -2  -1   37.99   16.35
 -10   2   1   77.41   20.46
 -10   2  -1   43.33   18.57
  10  -2   1   57.28   20.05
  10   3   1  178.15   79.24
 -10  -3  -1  215.04   79.26
 -10  -3   1  134.73   80.37
  10   3  -1  181.30   79.27
  10  -3  -1  313.48   78.39
 -10   3   1  268.59   79.31
 -10   3  -1  150.57   77.76
  10  -3   1  237.23   78.82
  10   4   1 1115.72  407.45
 -10  -4  -1  668.10  407.36
 -10  -4   1  901.54  409.69
  10   4  -1  717.02  407.54
  10  -4  -1 1401.35  407.08
 -10   4   1 1257.90  406.59
 -10   4  -1  632.94  406.34
  10  -4   1 1371.20  407.27
  10   5   1 2788.78  830.15
 -10  -5  -1 1077.91  829.18
 -10  -5   1 1635.06  832.74
  10   5  -1 2265.26  830.81
  10  -5  -1 2551.04  829.72
 -10   5   1 2502.08  829.31
 -10   5  -1 1311.29  829.00
  10  -5   1 2518.93  829.38
  10   6   1 2140.55 1008.92
 -10  -6  -1 1133.34 1008.37
 -10  -6   1 1820.57 1012.54
  10   6  -1 3146.46 1010.66
  10  -6  -1 3155.23 1009.59
 -10   6   1 3308.22 1009.33
 -10   6  -1 1605.28 1008.55
  10  -6   1 3714.16 1010.71
  10   7   1  216.57   80.12
 -10  -7  -1  155.72   78.85
 -10  -7   1  118.44   81.48
  10   7  -1  256.27   81.07
  10  -7  -1  300.46   79.68
 -10   7   1  335.91   80.37
 -10   7  -1  139.47   78.56
  10   8   1  345.31   86.87
  10   8   1  461.92  125.76
 -10  -8  -1  142.63  123.12
  10   8  -1  226.52  125.13
  10  -8  -1  256.19  124.12
 -10   8   1  354.44  124.90
 -10   8  -1  145.07  123.22
  10  -8   1  365.50  126.42
  10   9   1   79.96   20.16
  10   9   1   58.74   22.80
 -10  -9  -1   31.63   20.88
 -10  -9   1   25.62   21.31
  10   9  -1   57.08   18.24
  10   9  -1   60.94   24.72
  10  -9  -1  108.97   23.48
  10  -9   1   64.56   21.50
  10  10   1  431.70   75.37
 -10 -10  -1  181.55  103.59
  10  10  -1  407.18   74.24
  10  10  -1  374.17  105.05
  10 -10  -1  488.13  105.02
 -10  10  -1  160.57  102.81
  10 -10   1  143.79  106.25
  10  11   1  187.64   33.11
  10  11   1  185.83   37.01
 -10 -11  -1  102.93   40.77
 -10 -11   1   27.10   35.25
  10  11  -1  141.01   36.30
  10 -11  -1  171.58   36.14
 -10  11   1  118.67   29.51
 -10  11  -1   30.55   33.14
  10  12   1   40.54   14.36
  10  12   1   32.22   15.47
 -10 -12  -1   17.22   20.24
 -10 -12   1    4.44    7.54
  10  12  -1   25.18   16.76
  10  12  -1   26.86   18.10
 -10  12   1   31.54   13.72
 -10  12  -1    7.74   13.50
  10  13   1  729.34  190.51
  10  13   1  564.30  283.04
 -10 -13  -1  295.04  284.07
  10  13  -1  825.37  284.27
 -10  13   1  996.28  191.70
  10  14   1   58.94   22.90
  10  14   1   43.37   25.91
  10  14  -1   67.50   26.71
 -10  14   1  122.58   29.28
 -10  14  -1   32.40   25.47
  10  15   1  130.22   21.89
  10  15  -1   94.58   22.94
 -10  15   1  162.00   25.46
 -10  15  -1   41.92   20.45
  10 -15   1   17.15   19.04
  10  16   1   57.60   17.46
  10  16  -1   86.00   32.39
 -10  16   1   76.40   18.07
 -10  16  -1   30.67   20.86
  10 -16   1    1.07   10.90
  10  17   1  306.92   69.62
  10  17  -1  238.77   97.18
  10 -17  -1  209.45   98.28
 -10  17   1  259.04   69.05
  10  18   1   24.76   17.15
  10  18  -1   17.53   23.55
  10 -18  -1   26.63   10.56
 -10  18   1   14.36   16.58
  10  19   1  191.05   73.56
  10  19  -1  227.72  105.30
  10 -19  -1  277.32  105.70
 -10  19   1  228.27   74.05
  10  20   1   78.81   29.21
  10  20  -1   44.96   33.78
  10 -20  -1   58.40   25.22
 -10  20   1   62.91   24.59
  10  21   1   65.67   28.74
 -10 -21  -1   48.81   30.65
  10  21  -1   37.26   36.39
  10 -21  -1   85.42   29.03
 -10  21   1   63.15   26.94
  10  22   1   60.40   24.16
  10  22  -1   18.88   36.84
  10 -22  -1   28.91   14.07
 -10  22   1   55.22   20.85
  10  23   1   29.36   22.10
  10 -23  -1   18.59   11.76
 -10  23   1   46.30   23.93
  10  24   1  101.42   47.53
 -10  24   1   91.31   38.87
  11   0   1 1873.61  377.97
 -11   0  -1  220.39  378.76
  11   0  -1 1538.07  377.68
 -11   0   1 1005.33  377.32
  11   1   1  392.62   77.35
 -11  -1  -1  122.20   74.73
 -11  -1   1  144.46   74.94
  11   1  -1  128.53   74.05
  11  -1  -1  211.08   73.05
 -11   1   1  208.15   73.61
 -11   1  -1  170.87   73.28
  11  -1   1  239.11   73.62
  11   2   1  120.89   29.67
 -11  -2  -1   46.36   24.58
 -11  -2   1   36.74   25.81
  11   2  -1   60.47   28.89
  11  -2  -1   72.00   24.07
 -11   2   1  106.79   26.29
 -11   2  -1   49.52   24.54
  11  -2   1   70.46   24.62
  11   3   1 3070.52  930.04
 -11  -3  -1 2010.39  931.06
 -11  -3   1  791.81  932.11
  11   3  -1 3549.64  930.25
  11  -3  -1 3552.28  929.89
 -11   3   1 2972.64  929.44
  11  -3   1 2971.46  930.26
  11   4   1   42.08   24.39
 -11  -4  -1   36.51   18.13
 -11  -4   1   31.10   18.95
  11   4  -1   40.81   28.27
  11  -4  -1   81.79   20.03
 -11   4   1   71.89   22.30
 -11   4  -1   38.59   18.67
  11  -4   1   66.29   19.32
  11   5   1 1126.54  365.68
 -11  -5  -1  482.77  364.87
 -11  -5   1  679.87  368.15
  11   5  -1  902.54  365.80
  11  -5  -1 1254.48  365.25
 -11   5   1 1364.31  365.23
 -11   5  -1  621.33  364.61
  11  -5   1 1197.45  365.58
  11   6   1  256.08   89.84
 -11  -6  -1  107.58   88.26
 -11  -6   1  149.89   91.81
  11   6  -1  330.93   91.08
  11  -6  -1  372.73   89.71
 -11   6   1  316.89   89.80
 -11   6  -1  146.60   88.53
  11  -6   1  290.89   90.60
  11   7   1  564.17  198.09
 -11  -7  -1  268.77  196.79
 -11  -7   1  283.99  200.38
  11   7  -1  610.28  199.26
  11  -7  -1  880.83  198.46
 -11   7   1  782.42  198.49
 -11   7  -1  369.66  197.12
  11  -7   1  497.39  200.07
  11   8   1 1548.23  442.34
 -11  -8  -1  546.46  440.72
  11   8  -1  743.33  442.79
  11  -8  -1 1537.90  442.19
 -11   8   1 1294.08  442.30
 -11   8  -1  629.91  441.01
  11  -8   1 1066.01  444.33
  11   9   1  498.94  101.24
  11   9   1  347.35  146.74
 -11  -9  -1  252.27  145.90
 -11  -9   1  132.80  149.30
  11   9  -1  514.52  148.43
  11  -9  -1  548.93  147.38
 -11   9   1  669.19  148.15
 -11   9  -1  334.80  146.37
  11  -9   1  386.22  149.51
  11  10   1   43.19   15.51
  11  10   1   16.33   13.97
 -11 -10  -1   10.64   11.72
 -11 -10   1    5.95    6.82
  11  10  -1   27.95   12.84
  11  10  -1   34.86   16.34
  11 -10  -1   38.96   16.42
 -11  10  -1    9.74   15.67
  11 -10   1    6.81    7.74
  11  11   1  130.88   27.24
  11  11   1   96.72   27.10
 -11 -11  -1   28.31   23.02
  11  11  -1   75.74   29.00
  11  11  -1   97.91   26.53
 -11  11  -1   22.16   21.66
  11 -11   1   30.22   23.47
  11  12   1    2.64   16.71
  11  12   1    7.63   16.13
  11  12  -1    5.46   16.46
 -11  12   1    5.08   13.32
 -11  12  -1    1.34   16.76
  11  13   1   29.13   14.37
  11  13  -1   15.22   21.81
 -11  13   1   31.22   16.06
 -11  13  -1    8.81   15.91
  11  14   1   51.77   19.17
  11  14   1   32.02   20.27
  11  14  -1   43.16   21.78
 -11  14   1   58.75   23.41
 -11  14  -1   14.39   18.83
  11  15   1   47.75   19.39
 -11  15   1   62.54   24.35
 -11  15  -1   11.84   23.71
  11  16   1    6.27   14.97
  11  16  -1   12.99   26.66
 -11  16   1   19.48   16.44
 -11  16  -1    2.42   23.80
  11  17   1   57.69   20.32
  11  17  -1   38.27   25.31
 -11  17   1   33.11   19.40
  11  18   1    1.77   15.45
  11  18  -1    3.53   27.88
  11 -18  -1    6.10    6.83
 -11  18   1   12.39   15.74
  11  19   1   74.04   26.45
  11  19  -1   21.85   33.59
  11 -19  -1   78.82   27.94
 -11  19   1   77.57   26.51
  11  20   1  113.85   37.84
  11  20  -1   29.93   50.19
  11 -20  -1  141.24   48.47
 -11  20   1   76.62   37.63
  11  21   1  154.16   42.04
  11 -21  -1   96.68   46.36
 -11  21   1  154.96   37.86
  11  22   1  209.94   60.02
  11 -22  -1  189.47   80.47
 -11  22   1  178.06   58.45
  11  23   1   84.11   38.71
 -11  23   1   91.40   35.51
  12   0   1  190.99   37.13
 -12   0  -1   45.85   30.94
  12   0  -1   45.74   30.09
 -12   0   1   92.26   31.34
  12   1   1 9321.98 1754.71
 -12  -1  -1 2684.86 1755.92
 -12  -1   1 3394.42 1755.99
  12   1  -1 2967.50 1752.91
  12  -1  -1 5003.72 1754.04
 -12   1   1 4190.34 1753.81
 -12   1  -1 3645.70 1753.80
  12  -1   1 5206.13 1754.77
  12   2   1  298.22   45.64
 -12  -2  -1   48.02   36.97
 -12  -2   1   29.10   37.35
  12   2  -1  104.28   39.80
  12  -2  -1  100.27   35.98
 -12   2   1  195.56   38.48
 -12   2  -1   75.56   36.29
  12  -2   1   82.06   36.61
  12   3   1  277.62   63.15
 -12  -3  -1  126.70   61.24
 -12  -3   1   22.78   61.63
  12   3  -1  162.73   61.67
  12  -3  -1  258.47   60.49
 -12   3   1  276.42   61.30
 -12   3  -1  172.80   60.95
  12  -3   1  250.74   60.34
  12   4   1   -0.60   21.76
 -12  -4  -1    6.24   11.98
 -12  -4   1    4.00   10.41
  12   4  -1   -0.38   20.41
  12  -4  -1   -2.26   13.84
 -12   4   1   10.97   18.41
 -12   4  -1   -3.01   14.22
  12   5   1 1172.88  279.96
 -12  -5  -1  285.36  278.78
 -12  -5   1  434.64  281.45
  12   5  -1 1046.22  279.77
  12  -5  -1 1011.51  279.09
 -12   5   1 1074.79  278.73
 -12   5  -1  494.11  278.06
  12   6   1  275.05   64.62
 -12  -6  -1   98.29   61.52
 -12  -6   1   92.22   65.30
  12   6  -1  229.63   65.15
  12  -6  -1  243.67   63.33
 -12   6   1  331.61   64.36
 -12   6  -1  136.82   62.05
  12  -6   1  140.45   64.38
  12   7   1   73.88   29.19
 -12  -7  -1   23.93   23.31
  12   7  -1   62.54   29.12
  12  -7  -1   78.40   27.14
 -12   7   1  100.38   28.14
 -12   7  -1   49.46   27.63
  12   8   1    3.27   18.00
 -12  -8  -1    6.17   11.26
  12   8  -1    3.00   19.04
  12  -8  -1    3.93   17.07
 -12   8   1    5.91   16.69
 -12   8  -1   -0.61   19.81
  12  -8   1    1.92   12.10
  12   9   1    8.96   11.40
  12   9   1    6.66   15.86
  12   9  -1    9.23   18.26
 -12   9   1    6.40   16.19
 -12   9  -1    4.78   14.52
  12  -9   1    0.22   10.17
  12  10   1    2.69   11.98
  12  10  -1    4.03   17.81
 -12  10  -1    4.76   18.51
  12 -10   1    2.57    9.55
  12  11   1   54.77   21.41
  12  11   1   37.20   16.95
  12  11  -1   15.88   18.87
 -12  11  -1   66.72   20.48
  12 -11   1   22.56   13.86
  12  12   1   10.09   18.01
  12  12   1    2.50   17.12
  12  12  -1    5.64   17.71
 -12  12   1    6.70   13.54
  12 -12   1   -2.43    9.71
  12  13   1  142.09   35.37
  12  13  -1  106.92   46.38
 -12  13   1  114.93   34.36
 -12  13  -1   43.60   43.25
  12  14   1   63.11   25.82
  12  14   1  147.55   44.91
 -12  14   1   73.92   28.45
 -12  14  -1   21.03   32.73
  12  15   1  194.29   51.15
  12  15   1  169.62   69.73
 -12  15   1  234.97   53.24
 -12  15  -1   52.01   67.23
  12  16   1   82.05   26.00
  12  16   1   79.08   36.15
  12  16  -1   43.13   32.69
 -12  16   1   75.11   27.31
  12  17   1    3.94   14.68
  12  17  -1    0.89   23.50
 -12  17   1    2.44   14.46
  12  18   1    7.44   15.44
  12  18  -1    6.08   28.11
  12 -18  -1    7.02    6.38
 -12  18   1    8.63   14.85
  12  19   1  227.80   81.14
  12  19  -1  140.31  114.89
  12 -19  -1  328.45  116.43
 -12  19   1  277.60   81.30
  12  20   1   24.59   17.07
  12  20  -1    4.92   20.68
  12 -20  -1   15.20   11.07
 -12  20   1   17.78   16.85
  12  21   1   27.79   21.87
  12 -21  -1   32.79   14.65
 -12  21   1   31.81   19.20
  12  22   1    3.93   16.42
 -12  22   1   -5.65   22.44
 -12  23   1  105.22   40.18
  13   0   1 2055.10  447.04
 -13   0  -1  484.66  447.97
  13   0  -1 1252.02  446.99
 -13   0   1 1319.04  446.37
  13   1   1   97.76   28.91
 -13  -1  -1    6.25   11.23
 -13  -1   1    6.20   11.39
  13   1  -1   25.63   23.13
  13  -1  -1   24.19   15.34
 -13   1   1   42.79   16.86
 -13   1  -1   15.86   14.95
  13  -1   1   25.23   14.05
  13   2   1  575.52  178.25
 -13  -2  -1  252.58  179.05
 -13  -2   1  156.86  179.23
  13   2  -1  693.73  178.29
  13  -2  -1  697.75  177.84
 -13   2   1  762.42  178.07
 -13   2  -1  534.64  177.52
  13  -2   1  624.16  177.94
  13   3   1 2450.66  436.23
 -13  -3  -1  867.67  436.59
 -13  -3   1   20.38  436.80
  13   3  -1 1495.42  434.81
  13  -3  -1 1563.71  435.20
 -13   3   1 2033.78  435.15
  13  -3   1 1795.61  434.86
  13   4   1   50.12   28.64
 -13  -4  -1   33.68   23.49
 -13  -4   1   27.70   24.60
  13   4  -1  105.42   29.33
  13  -4  -1   72.22   23.39
 -13   4   1  119.50   27.68
 -13   4  -1   62.05   24.09
  13  -4   1   98.90   24.30
  13   5   1  103.23   29.72
 -13  -5  -1   36.50   25.92
  13   5  -1   66.89   29.66
  13  -5  -1   73.94   25.52
 -13   5   1   92.33   28.52
 -13   5  -1   40.78   25.39
  13  -5   1   55.72   25.86
  13   6   1  404.77  182.86
  13   6  -1  642.06  184.91
 -13   6   1  804.38  183.54
 -13   6  -1  380.85  182.43
  13  -6   1  267.73  184.79
  13   7   1  298.09   73.21
  13   7  -1  245.78   72.03
 -13   7   1  211.40   70.22
 -13   7  -1  158.47   70.11
  13  -7   1   93.45   71.23
  13   8   1  358.89  103.17
  13   8  -1  409.25  104.56
 -13   8   1  408.71  104.95
 -13   8  -1  243.17  102.77
  13  -8   1  107.69  104.35
  13   9   1  717.03  151.95
  13   9   1  662.67  224.68
  13   9  -1 1120.92  226.97
 -13   9   1  719.81  225.01
 -13   9  -1  550.14  224.51
  13  -9   1  215.62  226.82
  13  10   1   11.74   13.57
  13  10   1   30.87   17.94
  13  10  -1   14.25   16.60
 -13  10  -1   22.73   23.50
  13  11   1   52.64   20.38
  13  11   1   41.52   20.88
  13  11  -1   22.38   18.37
 -13  11  -1   22.03   25.43
  13  12   1  376.87   74.02
  13  12   1  279.30  100.55
  13  12  -1  179.06   99.48
 -13  12   1  285.51   72.01
 -13  12  -1  100.65   99.98
  13  13   1   17.89   16.66
  13  13  -1   -3.95   21.30
 -13  13   1    5.53   13.04
 -13  13  -1   -5.26   27.07
  13  14   1    7.23   13.86
  13  14   1   -4.12   38.55
  13  14  -1   -2.23   18.06
 -13  14   1   -0.62   15.95
 -13  14  -1   -5.88   28.23
  13  15   1    3.42   14.31
  13  15   1   12.13   29.09
  13  15  -1    5.47   21.83
 -13  15   1   10.43   20.06
  13  16   1    8.73   14.72
  13  16  -1   12.18   22.73
 -13  16   1   13.06   18.69
  13  17   1   15.12   15.75
  13  17  -1   10.17   19.61
 -13  17   1   18.27   15.56
 -13  17  -1   -0.44   36.23
  13  18   1    7.85   15.47
  13  18  -1   12.43   26.35
 -13  18   1    3.47   14.59
  13  19   1   56.15   24.18
  13  19  -1    6.24   32.34
  13 -19  -1   63.32   22.49
 -13  19   1   58.62   23.57
  13  20   1   65.83   23.47
  13 -20  -1   41.91   21.32
 -13  20   1   52.51   22.73
  13  21   1    5.47   59.11
  13 -21  -1  219.10   81.46
 -13  21   1  251.86   65.42
 -13  22   1  247.54   76.22
  14   0   1    2.50   22.50
 -14   0   1   -2.11   16.15
  14   1   1   -2.86   21.90
  14   1  -1    1.63   22.11
 -14   1   1    3.96   11.45
 -14   1  -1    5.75   15.19
  14   2   1    7.79   22.13
  14   2  -1   10.52   21.72
 -14   2   1    9.60   16.98
 -14   2  -1    8.01   14.41
  14   3   1   13.32   23.84
  14   3  -1   -1.69   22.78
 -14   3   1   12.18   18.51
 -14   3  -1   -3.34   18.41
  14   4   1  428.39  169.80
  14   4  -1  385.93  168.88
 -14   4   1  399.20  168.24
  14   5   1  862.93  421.55
  14   5  -1  961.68  421.38
 -14   5   1 1190.07  421.21
  14   6   1 2074.50  759.74
  14   6  -1  962.17  758.83
 -14   6   1 2411.95  759.62
  14   7   1  708.20  287.94
  14   7  -1  565.96  287.64
 -14   7   1  951.22  288.43
 -14   7  -1  533.64  287.42
  14   8   1  182.89   59.07
  14   8  -1  120.56   56.73
 -14   8   1  109.49   55.83
 -14   8  -1  139.62   59.06
  14   9   1  140.00   46.41
  14   9   1  147.36   62.92
  14   9  -1  127.59   62.14
 -14   9   1  234.36   66.02
 -14   9  -1  118.62   65.16
  14  10   1    3.49   12.17
  14  10   1    2.69   18.01
  14  10  -1    2.72   17.30
 -14  10  -1    9.79   22.33
  14  11   1  536.90  109.63
  14  11   1  339.39  157.36
  14  11  -1  347.66  157.15
 -14  11  -1  268.64  157.92
  14  12   1  308.64   66.56
  14  12   1  168.06   87.86
  14  12  -1  213.88   89.13
 -14  12   1  249.09   63.79
 -14  12  -1  127.65   89.98
  14  13   1  288.69   63.05
  14  13  -1  159.62   82.17
 -14  13   1  173.16   59.40
  14  14   1   -0.65   14.36
  14  14  -1   -4.31   20.04
 -14  14   1    2.80   15.14
  14  15   1  126.32   36.73
  14  15   1  103.63   51.70
  14  15  -1   70.26   46.17
 -14  15   1  148.11   40.10
  14  16   1   48.96   21.01
  14  16   1    1.99   29.32
  14  16  -1   21.38   26.12
 -14  16   1   37.63   22.09
  14  17   1   96.19   29.64
  14  17  -1   15.05   29.27
 -14  17   1   75.76   26.00
  14  18   1   20.77   20.97
  14  18  -1    1.64   27.74
 -14  18   1   14.29   15.26
  14  19   1    5.28   41.04
  14  19  -1   48.52   54.65
  14 -19  -1  186.51   55.40
 -14  19   1  103.24   42.23
  14  20   1   -2.65   20.91
  14 -20  -1   31.39   20.65
 -14  20   1   18.72   25.93
 -14  21   1   57.37   32.24
  15   0   1  163.29  102.92
 -15   0   1  337.19  103.74
  15   1   1  113.84   39.41
  15   1  -1   60.78   38.24
 -15   1   1  109.20   38.58
 -15   1  -1   76.33   37.36
  15   2   1    7.34   22.56
  15   2  -1   27.82   22.40
 -15   2   1   14.88   21.76
 -15   2  -1   -4.74   15.59
  15   3   1 1201.55  391.44
  15   3  -1  570.82  390.16
 -15   3   1 1317.78  390.86
 -15   3  -1  710.49  390.57
  15   4   1  508.09  167.66
  15   4  -1  416.00  166.74
 -15   4   1  501.56  166.09
 -15   4  -1  220.51  165.39
  15   5   1  144.06   78.95
  15   5  -1  255.83   78.46
 -15   5   1  241.34   78.17
 -15   5  -1  122.15   75.26
  15   6   1   43.48   37.05
  15   6  -1   64.78   34.51
 -15   6   1   99.14   37.16
  15   7   1  269.22  130.11
  15   7  -1  232.46  130.54
 -15   7   1  441.47  131.95
  15   8   1    4.55   19.22
  15   8  -1   24.20   25.72
 -15   8   1   18.52   26.90
  15   9   1  288.82  114.44
  15   9  -1  286.42  115.38
 -15   9   1  390.15  116.19
 -15   9  -1  137.11  113.96
  15  10   1   97.70   30.17
  15  10   1   68.45   38.10
  15  10  -1  121.04   42.10
 -15  10  -1   77.78   40.02
  15  11   1  142.38   39.35
  15  11   1   84.83   47.56
  15  11  -1  111.77   50.31
  15  12   1  240.73   49.59
  15  12   1  189.27   62.48
  15  12  -1   94.67   59.32
 -15  12   1  161.91   45.91
 -15  12  -1   64.87   64.16
  15  13   1  252.27   50.89
  15  13   1   83.92   63.14
  15  13  -1  213.57   64.11
 -15  13   1   95.62   46.48
  15  14   1 1103.50  207.17
  15  14   1  739.95  306.98
  15  14  -1  638.90  306.10
 -15  14   1  787.22  206.16
 -15  14  -1  220.06  307.35
  15  15   1    1.87   31.03
  15  15  -1   16.63   19.67
 -15  15   1   25.97   20.73
 -15  15  -1   17.75   40.44
  15  16   1  711.08  151.35
  15  16   1   -4.23  219.04
  15  16  -1  479.65  219.69
 -15  16   1  844.40  152.67
  15  17   1    7.57   58.83
  15  17  -1  177.73   78.67
 -15  17   1  354.10   58.94
  15  18   1   -3.94   20.28
 -15  18   1   -0.39   13.87
  15  19   1   -0.70   28.07
  15 -19  -1   36.65   19.45
 -15  19   1   15.26   18.04
 -15  20   1   10.41   25.56
  16   0   1    5.70   22.46
 -16   0   1    8.04   20.63
  16   1   1    6.34   32.22
  16   1  -1    8.51   22.14
 -16   1   1   -4.55   22.28
 -16   1  -1   -2.80   20.37
  16   2   1   53.85   33.36
  16   2  -1   42.83   25.20
 -16   2   1   60.48   26.59
 -16   2  -1   30.35   23.54
  16   3   1   -3.15   31.54
  16   3  -1   -5.31   27.38
 -16   3   1    3.97   25.59
 -16   3  -1   -2.50   19.81
  16   4   1   14.42   30.83
  16   4  -1    8.84   21.69
 -16   4   1   19.72   27.99
 -16   4  -1   14.10   18.00
  16   5   1   54.82   34.11
  16   5  -1   39.30   27.85
 -16   5   1   88.82   33.93
 -16   5  -1   20.74   34.99
  16   6   1    7.14   21.22
  16   6  -1   16.14   25.80
 -16   6   1   41.87   30.04
 -16   6  -1   19.05   26.18
  16   7   1  217.72  158.27
  16   7  -1  389.45  159.74
 -16   7   1  684.31  161.31
 -16   7  -1  268.02  161.19
  16   8   1   79.64   41.10
  16   8  -1   90.34   44.61
 -16   8   1  165.82   46.18
 -16   8  -1   59.48   44.64
  16   9   1  246.30   88.46
  16   9  -1  305.18  129.55
 -16   9   1  495.53  129.17
 -16   9  -1  211.73  129.75
  16  10   1    6.02   13.90
  16  10   1    0.36   21.49
  16  10  -1    5.43   28.64
 -16  10  -1   -3.32   36.02
  16  11   1  709.80  147.66
  16  11   1  412.85  214.03
  16  11  -1  532.68  216.31
 -16  11  -1  349.72  215.59
  16  12   1 1204.01  211.03
  16  12   1  692.05  309.02
  16  12  -1  602.14  308.62
 -16  12   1  752.93  207.77
 -16  12  -1  451.34  311.12
  16  13   1   13.67   20.63
  16  13   1   21.32   30.71
  16  13  -1   14.03   20.64
 -16  13   1   16.30   14.42
 -16  13  -1   18.77   39.66
  16  14   1    6.19   23.78
  16  14   1   73.81   46.05
  16  14  -1   79.53   28.48
 -16  14   1   95.29   23.69
 -16  14  -1   14.33   55.24
  16  15   1    1.76   21.94
  16  15  -1   69.47   27.46
 -16  15   1  100.31   23.21
  16  16   1   10.97   25.24
  16  16   1    2.67   35.72
  16  16  -1   81.86   34.84
 -16  16   1  150.78   30.41
  16  17   1    0.73   20.38
 -16  17   1   -1.52   15.26
  16  18   1   -4.61   51.02
 -16  18   1  275.30   50.77
  17   0   1   10.24   27.44
 -17   0   1   10.02   22.58
  17   1   1   10.10   31.95
  17   1  -1   -2.58   23.57
 -17   1   1    4.27   24.04
 -17   1  -1    4.45   21.67
  17   2   1    1.65   31.77
 -17   2   1   11.78   25.04
 -17   2  -1    3.74   21.08
  17   3   1  286.55  103.78
  17   3  -1  230.21  101.80
 -17   3   1  220.27  101.21
  17   4   1  163.30   61.40
  17   4  -1  104.18   57.04
 -17   4   1  150.56   59.34
  17   5   1  521.23  188.99
  17   5  -1  317.00  188.20
 -17   5   1  752.13  190.09
 -17   5  -1  294.55  188.73
  17   6   1   50.14   25.34
  17   6  -1   35.24   25.78
 -17   6   1   76.76   32.71
 -17   6  -1   19.41   34.86
  17   7   1   17.98   21.22
  17   7  -1   13.49   23.14
 -17   7   1   33.68   29.00
 -17   7  -1    6.56   28.32
  17   8   1  111.65   78.17
  17   8  -1  215.53   80.47
 -17   8   1  270.61   81.88
 -17   8  -1  178.43   81.87
  17   9   1   64.58   26.69
  17   9   1   46.94   32.56
  17   9  -1   64.80   36.51
 -17   9   1  139.09   38.96
 -17   9  -1   61.85   39.44
  17  10   1 1158.54  284.93
  17  10   1  857.37  427.71
  17  10  -1 1082.31  428.37
 -17  10  -1  868.35  428.83
  17  11   1    0.61   27.95
  17  11   1  136.11   37.93
  17  11  -1  117.48   34.77
 -17  11  -1   93.07   43.68
  17  12   1  119.67   46.07
  17  12  -1   73.84   44.67
 -17  12   1  130.78   33.83
 -17  12  -1   66.65   54.85
  17  13   1   -2.77   19.02
  17  13   1   16.07   37.21
  17  13  -1   12.45   26.03
 -17  13   1   14.25   13.78
 -17  13  -1   24.60   46.51
  17  14   1    9.72   18.18
  17  14   1   -2.49   35.60
  17  14  -1    0.84   27.70
 -17  14   1    6.08   15.56
  17  15   1    8.93   17.88
  17  15   1    6.11   34.19
  17  15  -1    8.98   22.65
 -17  15   1   20.95   18.39
  17  16   1    8.27   21.35
  17  16   1   10.86   49.27
 -17  16   1   11.03   18.13
 -17  17   1    4.92   15.70
  18   0   1   11.06   33.29
 -18   0   1   11.86   31.30
  18   1   1  112.11   49.63
  18   1  -1  126.12   49.33
 -18   1   1   87.81   44.47
 -18   1  -1   74.46   47.18
  18   2   1  429.86  203.88
  18   2  -1  465.34  203.80
 -18   2   1  662.49  203.60
 -18   2  -1  415.47  202.98
  18   3   1  233.25   59.30
  18   3  -1   41.80   53.17
 -18   3   1  177.57   56.81
 -18   3  -1   71.99   52.53
  18   4   1  275.64   73.24
  18   4  -1   74.38   67.94
 -18   4   1  250.21   74.51
 -18   4  -1  108.91   71.44
  18   5   1   57.90   31.10
 -18   5   1   73.65   37.80
  18   6   1   59.85   39.09
  18   6  -1   99.05   40.83
 -18   6   1  152.50   45.70
 -18   6  -1   62.15   41.98
  18   7   1   79.87   45.96
  18   7  -1  100.38   47.46
 -18   7   1  210.80   52.04
 -18   7  -1   57.12   48.31
  18   8   1    8.45   20.90
  18   8  -1   11.74   24.04
 -18   8   1    7.53   28.83
  18   9   1    6.09   14.39
  18   9   1   12.38   22.71
  18   9  -1   24.06   25.03
 -18   9  -1    4.77   36.27
  18  10   1    7.26   19.29
  18  10   1   54.95   25.66
  18  11   1   -1.44   19.35
  18  11   1   52.28   28.41
  18  11  -1   63.80   37.40
 -18  11  -1   12.56   31.39
  18  12   1    2.90   28.35
  18  12   1   55.54   35.44
  18  12  -1  111.36   44.44
 -18  12   1   79.85   24.65
  18  13   1    6.10   39.85
  18  13   1    5.34   55.74
  18  13  -1  217.30   62.19
 -18  13   1  191.03   42.15
  18  14   1    2.99   18.04
  18  14   1   -3.29   52.66
 -18  14   1    6.09   19.77
 -18  15   1   -2.31   17.00
  19   0   1   68.69   38.68
 -19   0   1   38.84   31.56
  19   1   1  398.38  106.86
  19   1  -1  190.75  102.00
 -19   1   1  200.74  100.08
 -19   1  -1  172.48   99.80
  19   2   1    4.70   34.65
  19   2  -1   -1.66   43.48
 -19   2   1    1.00   32.52
 -19   2  -1   -1.67   27.16
  19   3   1   94.93   54.59
  19   3  -1  122.97   61.20
 -19   3   1  236.03   61.75
 -19   3  -1   84.84   61.76
  19   4   1 1088.06  319.06
  19   4  -1  604.67  318.36
 -19   4   1  800.13  318.50
 -19   4  -1  537.47  318.27
  19   5   1  195.85   89.61
  19   5  -1   83.16   89.64
 -19   5   1  464.52   94.80
 -19   5  -1  144.90   91.39
  19   6   1   28.56   23.99
  19   6  -1    5.39   27.24
 -19   6   1   93.57   34.22
 -19   6  -1   36.88   30.70
  19   7   1    1.36   21.87
  19   7  -1    5.25   26.19
 -19   7   1   -0.18   30.32
 -19   7  -1    5.98   29.37
  19   8   1    0.48   15.06
  19   8   1    6.08   23.40
  19   8  -1    4.75   26.05
 -19   8   1    8.18   29.72
 -19   8  -1   16.72   37.97
  19   9   1   -3.95   13.99
  19   9   1   12.32   25.61
 -19   9  -1    5.78   39.35
  19  10   1    0.10   15.89
  19  10   1    7.68   27.15
  19  10  -1   25.24   37.00
  19  11   1    1.07   19.11
  19  11   1    8.93   53.14
  19  11  -1    4.73   38.20
  19  12   1   18.37   53.78
 -19  12   1   33.74   21.85
 -19  13   1    2.92   19.51
  20   0   1    7.22   35.71
 -20   0   1    5.13   40.16
  20   1   1    4.61   30.40
  20   1  -1   18.04   35.71
 -20   1   1   -5.82   33.03
 -20   1  -1   22.00   34.09
  20   2   1   49.18   41.95
  20   2  -1  141.13   50.76
 -20   2   1  123.93   56.41
 -20   2  -1   74.35   47.23
  20   3   1  103.83   92.32
  20   3  -1  269.18   97.45
 -20   3   1  332.92   97.24
 -20   3  -1  215.74   95.83
  20   4   1   23.79   23.87
  20   4  -1    6.43   37.15
 -20   4   1   33.49   34.71
  20   5   1   62.32   51.88
  20   5  -1   55.93   59.54
 -20   5   1  277.91   60.03
 -20   5  -1  109.50   57.09
  20   6   1    9.59   31.63
  20   6  -1    5.99   36.48
 -20   6   1   49.51   40.22
 -20   6  -1   19.09   33.55
  20   7   1    0.82   48.79
 -20   7   1   50.09   39.26
 -20   7  -1  -19.87   42.52
  20   8   1   -0.96   14.61
  20   8   1   12.22   47.01
  20   8  -1  -14.69   54.11
  20   9   1   -0.32   50.20
  20   9  -1   12.78   67.35
  20  10   1    9.82   66.26
  21   0   1   51.70   55.96
 -21   0   1  192.82   78.54
  21   1   1   78.00   89.06
  21   1  -1  342.92   92.66
 -21   1   1  193.24   95.45
 -21   1  -1  225.85  111.65
  21   2   1   86.25  139.34
  21   2  -1  381.19  142.46
 -21   2   1  486.89  144.91
 -21   2  -1  422.72  157.39
  21   3   1    5.99   34.43
  21   3  -1   83.51   44.81
 -21   3   1   62.06   45.84
 -21   3  -1   12.26   83.92
  21   4   1    2.79   33.23
  21   4  -1    0.07   43.88
 -21   4   1    5.52   42.21
  21   5   1   -0.31   33.23
  21   5  -1    4.25   45.12
 -21   5   1   -3.12   41.94
  21   6   1    5.49   44.83
 -21   6   1    0.52   28.30
   0   1   2  178.15   46.93
   0  -1  -2  126.85   47.07
   0  -1   2   45.92   47.01
   0   2   2 1046.67  319.89
   0  -2  -2  522.58  320.67
   0  -2   2  620.08  210.55
   0  -2   2  886.94  320.50
   0   2  -2  760.46  320.72
   0   3   2    3.07    3.97
   0  -3  -2    1.80    4.63
   0  -3  -2    0.06    1.66
   0  -3   2    5.19    6.07
   0  -3   2    1.03    3.84
   0   3  -2    6.80    4.35
   0   4   2    6.52    4.47
   0  -4  -2    5.25    6.09
   0  -4  -2    6.65    2.39
   0  -4   2    6.46    5.78
   0  -4   2   14.72    4.58
   0   4  -2    8.53    4.83
   0   5   2    7.14    5.28
   0  -5  -2   -0.58    6.39
   0  -5  -2    0.75    0.92
   0  -5   2    2.72    4.71
   0   5  -2    2.86    4.63
   0  -6   2  700.43  284.56
   0  -6   2 1311.65  433.61
   0   6  -2  918.33  434.31
   0  -7  -2    3.82   10.13
   0  -7   2    8.74    8.76
   0  -7   2    8.80    4.50
   0   7  -2    6.37    5.12
   0  -8  -2  765.98  209.43
   0   8  -2  743.73  317.71
   0  -9  -2    1.33   11.43
   0  -9   2    3.99    7.69
   0   9  -2    0.83    4.83
   0 -10  -2   20.23   13.05
   0 -10   2   23.90   11.78
   0  10  -2   27.47   11.04
   0 -11  -2    3.81    9.72
   0 -11   2    2.01    8.81
   0  11  -2    3.57    4.92
   0 -12   2    8.48   11.25
   0  12  -2   18.49    7.73
   0 -13  -2    1.50   10.41
   0 -13   2    2.27   13.43
   0  13  -2    4.88    5.20
   0 -14  -2   13.05   13.64
   0 -14   2   31.05   16.26
   0  14  -2   30.23   12.01
   0 -15  -2   -2.03   18.64
   0 -15   2    4.95   15.30
   0  15  -2    0.79    5.95
   0 -17   2   -1.04   19.64
   0  17  -2    2.02    7.27
   0 -18   2   55.63   31.29
   0  18  -2   82.43   32.20
   0 -19   2   -1.11   19.44
   0  19  -2   -1.52    7.70
   0 -20   2  143.13   57.00
   0  20  -2  187.69   74.74
   0  21  -2    5.61   10.46
   0  23  -2    6.01   14.87
   0  24  -2   16.73   15.81
   0  25  -2   -2.52   14.00
  -1   0  -2   78.46   35.45
   1   0  -2   92.92   35.53
   1   1   2 1280.57  497.32
  -1  -1  -2 1001.75  497.97
  -1  -1   2  969.51  497.89
   1   1  -2 1771.85  497.52
   1  -1  -2 1055.18  497.83
   1  -1   2 1195.81  497.96
  -1  -2  -2 1207.67  492.98
  -1  -2  -2 1278.43  755.37
  -1  -2   2 2035.36  755.32
   1   2  -2 2103.23  754.98
   1  -2  -2 1933.88  755.28
   1   3   2  108.38   40.12
  -1  -3  -2   66.26   28.72
  -1  -3   2   97.45   40.72
   1   3  -2  131.20   40.53
   1  -3  -2   88.48   40.72
  -1   3  -2   54.57   28.76
   1  -3   2   93.26   40.16
   1   4   2  197.59   61.90
  -1  -4  -2  135.08   43.40
  -1  -4  -2  104.02   62.95
  -1  -4   2  108.40   42.93
  -1  -4   2  156.64   63.05
   1   4  -2  227.36   62.74
   1  -4  -2  130.53   63.01
  -1   4   2  138.11   43.56
  -1   4  -2  140.68   44.32
   1  -4   2  178.89   61.78
  -1  -5  -2   27.33   13.02
  -1  -5   2   26.52   12.47
  -1  -5   2   38.04   15.45
   1   5  -2   45.53   15.66
   1  -5  -2   38.86   15.75
  -1   5   2   49.15   17.00
  -1   5  -2   25.22   13.87
   1   6   2  428.54  132.83
  -1  -6  -2  299.26   91.09
  -1  -6   2  230.74   90.73
  -1  -6   2  307.21  136.17
   1  -6  -2  350.84  136.36
  -1   6   2  258.74   91.21
  -1   6  -2  285.02   90.99
   1  -6   2  334.42  134.87
  -1  -7   2  901.43  301.75
  -1  -7   2 1040.05  460.46
   1   7  -2 1381.06  460.66
   1  -7  -2  990.38  460.86
  -1   7   2  896.86  302.08
  -1   7  -2  835.93  301.84
  -1  -8  -2 1638.66  503.63
  -1  -8   2 1591.27  503.46
  -1  -8   2 1815.19  770.17
   1   8  -2 2191.17  770.69
   1  -8  -2 1569.88  770.83
  -1   8   2 1851.50  503.83
  -1   8  -2 1686.68  503.59
  -1  -9  -2  339.58  140.12
  -1  -9   2  417.75  140.10
  -1  -9   2  613.41  210.75
   1   9  -2  541.53  211.20
   1  -9  -2  471.69  211.37
  -1   9  -2  293.92  140.02
  -1 -10  -2    2.27   10.57
  -1 -10   2    8.04    6.30
   1  10  -2   11.79    6.80
   1 -10  -2   18.91    6.88
  -1  10   2    4.83   10.57
  -1  10  -2    6.95   10.63
  -1 -11  -2   80.91   29.73
  -1 -11   2   97.11   30.04
   1 -11  -2   88.56   35.89
  -1  11  -2   70.68   27.85
  -1 -12  -2   91.63   38.83
  -1 -12   2  139.40   39.35
   1  12  -2  144.02   49.35
   1 -12  -2  110.55   49.43
  -1  12   2   95.78   36.71
  -1  12  -2   80.69   36.47
  -1 -13  -2   30.87   19.78
  -1 -13   2   38.15   20.32
   1  13  -2   50.22   16.85
   1 -13  -2   38.39   16.69
  -1  13   2   34.37   18.25
  -1  13  -2   23.38   16.88
  -1 -14  -2  176.37   68.69
  -1 -14   2  237.46   68.96
   1  14  -2  312.66   97.51
   1 -14  -2  220.94   97.79
  -1  14   2  147.08   66.79
  -1  14  -2  110.85   66.89
  -1 -15  -2    3.61   15.39
   1  15  -2    7.19    6.92
   1 -15  -2    4.33    5.33
  -1  15   2    4.86   12.20
  -1  15  -2    5.00   13.93
  -1 -16   2  101.62   32.26
   1  16  -2   87.39   35.64
   1 -16  -2   86.19   35.87
  -1  16   2   67.05   29.24
  -1 -17   2    6.38   14.20
   1  17  -2    7.41    6.96
   1 -17  -2    5.87    8.90
  -1  17   2   -0.28   16.15
  -1 -18   2  223.76   92.28
   1  18  -2  347.48  135.86
   1 -18  -2  319.88  136.02
  -1  18   2  368.20   95.99
  -1  19   2   14.89   28.60
   1  20  -2   17.22   11.10
   1 -20  -2   11.31    8.37
  -1  20   2   18.37   25.88
   1 -21  -2  378.68  156.90
  -1  21   2  330.29  110.50
   1  22  -2  812.23  282.46
   1 -22  -2  621.06  282.65
  -1  22   2  446.67  189.37
   1  23  -2  371.62  163.21
   1 -23  -2  397.99  163.43
   1  24  -2    1.60   14.28
   1 -24  -2   11.56   13.49
   1  25  -2   21.80   16.96
   1 -25  -2   16.14   17.52
   2   0   2  678.90  252.94
  -2   0  -2  539.49  253.32
   2   1   2  164.74   52.46
  -2  -1   2  117.49   53.10
   2   1  -2  157.61   52.76
   2  -1  -2  100.35   53.08
   2   2   2  256.52  109.61
  -2  -2  -2  221.13  110.33
  -2  -2   2  300.43  110.49
   2   2  -2  432.60  109.75
   2  -2  -2  181.64  110.40
   2   3   2   13.93    8.34
  -2  -3  -2    6.70    5.27
  -2  -3   2   19.59    6.58
   2   3  -2   28.48    7.86
   2  -3  -2   14.02    6.61
   2  -3   2   13.16    5.55
   2   4   2   64.55   20.03
  -2  -4  -2   30.94   20.29
  -2  -4   2   65.14   20.75
   2   4  -2   35.63   20.18
   2  -4  -2   61.65   20.79
   2  -4   2   46.75   20.01
   2   5   2 4593.63 1112.75
  -2  -5  -2 2294.09  728.18
  -2  -5   2 2349.77 1116.71
   2   5  -2 3393.39 1116.33
   2  -5  -2 2380.94 1116.81
  -2   5   2 2494.02  728.37
  -2   5  -2 2014.38  728.14
   2  -5   2 2510.56 1116.16
   2   6   2 4661.61 1480.41
  -2  -6   2 3009.90 1483.13
   2   6  -2 4327.11 1482.86
   2  -6  -2 3089.35 1483.24
  -2   6   2 3751.65  966.87
  -2   6  -2 3384.89  967.00
  -2  -7   2 1619.87  702.10
   2   7  -2 2158.01  701.78
   2  -7  -2 1347.49  702.11
  -2   7   2 2123.45  459.90
  -2   7  -2 1329.86  458.82
   2   8   2   28.36    8.58
  -2  -8  -2   16.36   12.74
  -2  -8   2   13.58   11.05
  -2  -8   2   20.24   10.38
   2   8  -2   34.62   11.09
   2  -8  -2   31.28   10.91
  -2   8   2   11.21   11.74
  -2   8  -2   16.58   11.06
   2   9   2   18.23    7.38
  -2  -9  -2   12.57   12.29
  -2  -9   2   16.79    9.95
  -2  -9   2   18.89    8.57
   2   9  -2   25.34    9.59
   2  -9  -2   24.82    9.33
  -2   9   2   16.58   11.07
  -2   9  -2   14.42   10.42
  -2 -10  -2   16.08   13.94
  -2 -10   2   12.14    9.62
  -2 -10   2   17.04    7.17
   2  10  -2   16.03    7.81
   2 -10  -2   16.32    7.54
  -2  10   2   12.00   10.94
  -2  10  -2   10.05   10.51
  -2 -11  -2  240.96   91.94
  -2 -11   2  214.36   91.22
  -2 -11   2  351.66  135.59
   2  11  -2  338.05  136.02
   2 -11  -2  342.67  136.31
  -2  11  -2  258.86   92.06
  -2 -12  -2   83.40   34.94
  -2 -12   2  100.61   35.01
  -2 -12   2  104.13   46.92
   2 -12  -2  148.61   47.58
  -2  12   2   78.76   35.26
  -2  12  -2   69.35   35.00
  -2 -13  -2   64.17   35.14
  -2 -13   2   76.17   32.64
   2  13  -2  116.82   44.52
   2 -13  -2  132.36   44.72
  -2  13   2   83.92   34.66
  -2  13  -2   59.95   33.45
  -2 -14  -2  490.82  212.50
   2  14  -2  748.65  321.78
   2 -14  -2  834.93  322.04
   2 -14  -2 1278.61  319.50
  -2  14   2  519.96  212.37
  -2  14  -2  536.13  213.04
  -2 -15  -2    1.19   14.59
   2  15  -2   18.83    8.63
   2 -15  -2   17.53    8.00
   2 -15  -2   15.46   15.84
  -2  15   2   16.26   13.89
  -2  15  -2    1.78   15.61
   2  16  -2  265.61   98.18
   2 -16  -2  228.91   98.73
  -2  16   2  177.79   68.66
   2 -17  -2   70.03   28.02
  -2  17   2   45.33   25.95
   2 -18  -2   38.51   16.51
  -2  18   2   28.32   23.09
   2  19  -2    4.03   10.98
   2 -19  -2    5.62    8.17
   2  20  -2   29.06   14.72
   2 -20  -2   29.66   12.61
  -2  20   2   38.05   28.13
  -2  21   2    9.83   26.45
   2  22  -2  199.67   84.49
   2  23  -2  123.45   53.14
  -2  23   2  130.53   49.74
   2  24  -2  368.66  153.64
  -2  24   2  335.09  107.69
   2 -25  -2   30.28   17.23
  -3   0  -2    0.75    4.37
   3   0  -2    4.13   12.88
   3   1   2   31.62   11.61
  -3  -1  -2   14.83    8.72
  -3  -1   2   20.77    9.23
   3   1  -2   36.87   10.32
   3  -1   2   18.24    8.22
   3   2   2  229.38   69.34
  -3  -2   2  213.06   70.42
   3  -2  -2  123.90   70.22
   3  -2   2  133.85   70.10
   3  -2   2  255.71   66.67
   3   3   2  462.06  127.85
  -3  -3  -2  244.36  128.59
  -3  -3   2  328.13  129.09
   3   3  -2  404.64  128.93
   3  -3  -2  213.42  129.10
   3  -3   2  282.24  129.12
   3  -3   2  460.83  124.99
   3   4   2  519.55  172.02
  -3  -4  -2  284.21  175.25
  -3  -4   2  469.39  175.79
   3   4  -2  580.64  175.44
   3  -4  -2  323.60  175.69
   3   5   2  191.23   65.69
   3   5   2  261.62   94.27
  -3  -5   2  231.71   97.39
   3   5  -2  208.02   96.63
   3  -5  -2  243.56   97.28
   3   6   2  705.93  180.00
  -3  -6  -2  351.01  272.22
  -3  -6   2  675.76  272.93
   3   6  -2 1162.02  272.27
   3  -6  -2  499.69  272.78
   3  -6   2  859.79  268.58
   3   7   2   36.61   15.61
   3   7   2   37.99   12.97
  -3  -7  -2   14.52   11.33
  -3  -7   2   33.05   12.88
   3   7  -2   24.50   12.02
   3   7  -2   29.57   13.26
   3  -7  -2   38.41   12.61
  -3   7   2   35.03   14.93
  -3   7  -2   28.82   14.35
   3   8   2  448.37  113.46
   3   8   2  472.07  165.11
  -3  -8  -2  165.00  167.81
  -3  -8   2  363.75  168.92
   3   8  -2  281.55  112.16
   3   8  -2  760.11  168.37
   3  -8  -2  391.18  168.94
  -3   8   2  467.43  114.13
  -3   8  -2  336.90  113.25
   3   9   2   72.68   22.36
  -3  -9   2   43.47   20.19
   3   9  -2   56.16   18.09
   3   9  -2   48.46   20.19
   3  -9  -2   53.19   20.18
  -3   9   2   54.77   19.60
  -3   9  -2   40.04   17.60
   3  10   2   16.56   15.00
   3  10   2    9.61   10.44
  -3 -10  -2    8.85    8.10
  -3 -10   2   20.36    9.24
   3  10  -2   20.10   13.06
   3  10  -2   38.42   10.89
   3 -10  -2   27.50    9.68
   3 -10  -2   34.66   14.61
  -3  10   2   14.46   13.64
  -3  10  -2   17.05   12.57
   3  11   2    8.98    6.41
  -3 -11   2   19.04    9.17
   3  11  -2   21.29   13.68
   3  11  -2   41.85   11.07
   3 -11  -2   22.17   10.24
   3 -11  -2   29.03   15.93
  -3  11   2   15.75   12.62
  -3  11  -2   11.61   13.05
   3  12   2  130.70   49.55
  -3 -12   2  158.60   68.77
   3  12  -2  126.58   48.48
   3  12  -2  201.50   68.58
   3 -12  -2  167.63   69.18
   3 -12  -2  320.93   67.80
  -3  12   2  149.67   49.00
  -3  12  -2   73.13   48.33
   3  13   2 1108.24  343.89
  -3 -13   2  830.09  523.04
   3  13  -2  688.50  343.31
   3  13  -2 1692.17  523.09
   3 -13  -2 1467.21  523.75
   3 -13  -2 2237.23  520.08
  -3  13   2  860.18  343.54
  -3  13  -2  663.53  343.35
   3  14   2  359.38  104.35
  -3 -14   2  349.66  153.60
   3  14  -2  246.02  103.84
   3 -14  -2  390.93  153.99
   3 -14  -2  580.26  151.39
  -3  14   2  384.39  104.52
  -3  14  -2  246.12  103.81
   3  15  -2  866.69  502.41
   3  15  -2 2347.49  767.73
   3 -15  -2 1942.73  768.54
  -3  15   2 1213.10  502.53
  -3  15  -2  886.46  502.75
   3  16   2 1077.06  325.59
   3  16  -2 1398.24  495.50
   3 -16  -2 1076.89  496.14
  -3  16   2 1072.70  325.87
   3  17  -2  375.04  174.58
   3 -17  -2  452.26  175.39
  -3  17   2  318.99  118.01
   3  18  -2  136.15   64.73
   3 -18  -2  181.94   65.14
  -3  18   2   78.48   47.88
   3  19  -2   13.00   11.44
  -3  19   2    9.04   18.97
   3  20  -2   17.02   13.22
   3 -20  -2   21.23   10.53
  -3  20   2    9.52   17.73
   3  21  -2  114.61   47.45
   3 -21  -2  105.76   46.03
  -3  21   2  112.73   39.61
   3  22  -2  252.94  105.49
   3 -22  -2  247.09  105.20
   3  23  -2    5.06   21.10
  -3  23   2    6.13   38.76
   3  24  -2  131.34   58.44
  -3  24   2  150.21   55.07
  -3  25   2   -2.65   37.21
   4   0   2  164.62   48.93
  -4   0  -2   84.04   48.86
   4   0  -2  152.22   45.86
   4   1   2    8.61    7.66
  -4  -1  -2    3.09    4.06
  -4  -1   2    8.62    5.12
   4   1  -2   20.26    8.49
   4  -1  -2    8.37    4.38
   4  -1  -2   14.24   12.98
   4  -1   2   16.00    7.58
   4   2   2  860.44  241.18
  -4  -2   2  589.87  242.78
   4   2  -2  639.16  242.14
   4  -2  -2  492.19  242.33
   4  -2  -2  900.14  239.34
   4  -2   2  436.81  242.54
   4   3   2  123.89   27.68
  -4  -3  -2   45.81   27.68
  -4  -3   2   65.12   28.38
   4   3  -2   99.97   28.47
   4  -3  -2   71.34   27.93
   4  -3  -2  105.44   27.62
   4  -3   2   50.99   27.91
   4  -3   2   85.64   25.25
   4   4   2  288.10   97.70
   4   4   2  395.57  143.41
  -4  -4  -2  193.80  145.81
  -4  -4   2  352.37  146.82
   4   4  -2  429.27  146.30
   4  -4  -2  341.40  146.60
   4  -4  -2  516.30  143.89
   4  -4   2  389.92  142.78
   4   5   2   24.63   10.66
   4   5   2   27.10   11.17
  -4  -5  -2   11.25    9.92
  -4  -5   2   27.50   10.96
   4   5  -2   33.21   11.90
   4  -5  -2   27.43   10.32
   4  -5  -2   36.60   14.52
   4  -5   2   23.92    9.78
   4   6   2   49.73   19.00
   4   6   2   71.44   23.81
  -4  -6   2   64.69   23.91
   4   6  -2   62.17   20.03
   4   6  -2   34.57   23.36
   4  -6  -2   63.47   23.81
   4  -6  -2   80.72   23.86
   4   7   2  388.98   84.86
  -4  -7  -2  233.19  125.54
  -4  -7   2  352.65  126.15
   4   7  -2  178.35  125.63
   4  -7  -2  306.45  126.00
   4  -7  -2  666.48  123.88
  -4   7  -2  255.34   84.26
   4   8   2 1527.01  471.69
  -4  -8   2  955.11  475.49
   4   8  -2  832.26  475.03
   4  -8  -2 1314.07  475.48
   4  -8  -2 1970.09  472.43
  -4   8   2 1230.40  311.91
  -4   8  -2  965.85  311.88
   4   9   2  188.55   55.35
   4   9   2  171.77   75.31
  -4  -9   2  151.85   78.86
   4   9  -2  278.57   58.02
   4   9  -2  239.19   78.81
   4  -9  -2  175.82   78.93
   4  -9  -2  227.37   76.27
  -4   9   2  177.98   56.21
  -4   9  -2  193.70   56.69
   4  10   2 1118.28  247.08
   4  10   2  603.03  369.75
  -4 -10   2  710.31  374.22
   4  10  -2 1234.22  247.95
   4  10  -2  831.36  373.94
   4 -10  -2  944.43  374.34
   4 -10  -2 1555.00  371.29
  -4  10   2 1315.68  248.14
  -4  10  -2  667.75  246.22
   4  11   2  652.45  136.40
  -4 -11   2  480.57  202.45
   4  11  -2  634.82  136.27
   4  11  -2  427.66  202.02
   4 -11  -2  462.53  202.33
   4 -11  -2  856.64  199.53
  -4  11   2  436.27  134.75
  -4  11  -2  300.74  134.18
   4  12   2 1730.09  335.06
   4  12   2  933.30  503.07
  -4 -12   2  899.43  508.02
   4  12  -2 1171.52  333.93
   4  12  -2 1104.95  507.68
   4 -12  -2 1531.11  508.06
   4 -12  -2 2281.79  504.75
  -4  12  -2  704.14  332.79
   4  13   2 1702.13  346.76
  -4 -13   2  900.05  525.55
   4  13  -2  986.42  345.11
   4  13  -2 1514.12  525.61
   4 -13  -2 1291.88  525.86
   4 -13  -2 2040.12  522.10
  -4  13   2 1448.62  345.52
  -4  13  -2  595.42  344.46
   4  14   2    3.44   18.17
  -4 -14   2    4.73    6.04
   4  14  -2    1.90    7.85
   4 -14  -2    1.24    6.32
  -4  14  -2    4.69   12.43
   4  15   2    7.14   18.01
   4  15  -2    3.34   14.83
   4  15  -2    8.12    8.06
   4 -15  -2   10.52    6.31
  -4  15   2   10.20   13.50
   4  16   2   49.74   22.43
   4  16  -2   39.28   20.36
   4 -16  -2   50.33   19.13
  -4  16   2   36.68   20.31
   4  17   2  968.05  342.36
   4  17  -2 1386.32  520.99
  -4  17   2  867.75  342.09
   4  18   2  143.60   55.25
   4  18  -2  203.38   75.27
  -4  18   2  131.18   55.60
   4  19  -2  165.25   60.79
   4 -19  -2  146.88   60.65
  -4  19   2   68.40   45.40
   4  20  -2  278.62   99.16
   4 -20  -2  231.89   99.09
  -4  20   2  129.47   69.75
   4  21  -2  225.01   78.73
   4 -21  -2  176.74   78.27
  -4  21   2  127.75   57.14
   4  22  -2    2.40   17.24
   4 -22  -2    5.18   10.14
  -4  22   2    9.78   24.22
   4  23  -2   25.49   18.48
   4 -23  -2   18.46   12.26
  -4  23   2   23.10   33.07
   4  24  -2   57.55   28.46
  -4  24   2   48.79   42.85
  -4  25   2   10.74   41.63
   5   0   2    3.48    9.01
  -5   0  -2    0.43    4.55
   5   0  -2    2.61    5.02
   5   0  -2    0.66    8.24
   5   1   2    4.73   10.63
  -5  -1  -2    0.56    5.84
  -5  -1   2    1.02    3.94
   5   1  -2    3.73    8.71
   5  -1  -2   10.04    5.80
   5  -1  -2    9.92    8.66
   5  -1   2    5.99    4.56
   5  -1   2    2.04    7.40
   5   2   2  254.90  107.80
  -5  -2  -2  264.16  110.44
  -5  -2   2  175.76  110.61
   5   2  -2  312.19  110.41
   5  -2  -2  276.93  110.59
   5  -2  -2  352.76  107.90
   5  -2   2  371.29  107.82
   5   3   2   12.64    7.51
   5   3   2    4.80   15.11
  -5  -3  -2    0.06    6.53
  -5  -3   2   17.37    5.63
   5   3  -2   24.57   10.23
   5  -3  -2    5.70    9.49
   5  -3   2   23.05   10.14
   5   4   2  113.32   35.42
  -5  -4  -2   36.83   36.12
  -5  -4   2   83.37   36.76
   5   4  -2   47.24   26.13
   5   4  -2  109.65   36.75
   5  -4  -2  113.39   36.12
   5  -4  -2  129.80   34.22
   5  -4   2  109.35   35.69
   5   5   2   32.45   17.42
  -5  -5  -2   11.03   16.89
  -5  -5   2   52.17   17.52
   5   5  -2   26.35   14.12
   5   5  -2   83.15   19.46
   5  -5  -2   31.34   16.85
   5  -5  -2   42.70   16.33
   5   6   2   24.04   14.95
   5   6   2   37.52   19.57
  -5  -6   2   32.86   17.27
   5   6  -2   59.96   18.22
   5  -6  -2   44.67   16.81
   5  -6  -2   57.37   16.84
   5   7   2   55.28   24.87
  -5  -7   2   57.93   24.68
   5   7  -2   41.26   19.11
   5   7  -2   70.14   25.04
   5  -7  -2   58.29   24.25
   5  -7  -2   98.64   23.52
   5  -7   2   46.39   24.03
   5  -7   2  104.75   22.64
   5   8   2    0.71    9.82
   5   8   2    7.43   12.15
  -5  -8   2    4.48    4.85
   5   8  -2    5.21   10.78
   5   8  -2    5.50    9.15
   5  -8  -2    3.80    5.13
   5  -8  -2   10.12   12.50
  -5   8   2    2.00   11.31
  -5   8  -2    2.05    7.54
   5   9   2 1539.20  503.48
   5   9   2 2426.96  766.94
  -5  -9  -2 1165.61  769.88
  -5  -9   2 1386.27  770.94
   5   9  -2 2553.26  770.25
   5  -9  -2 2161.65  770.79
   5  -9  -2 2939.84  767.20
  -5   9   2 1449.66  503.71
   5  10   2 1085.83  329.18
   5  10   2 1145.27  497.98
  -5 -10  -2  572.07  501.30
  -5 -10   2 1139.69  502.36
   5  10  -2 1436.79  329.78
   5  10  -2 1697.90  501.75
   5 -10  -2 1038.24  502.27
   5 -10  -2 2277.34  499.04
  -5  10   2 1863.57  331.14
  -5  10  -2 1154.32  330.30
   5  11   2 1364.42  458.04
  -5 -11  -2  703.06  699.40
  -5 -11   2 1289.80  700.50
   5  11  -2 2216.53  459.12
   5  11  -2 2154.20  699.98
   5 -11  -2 1951.55  700.65
   5 -11  -2 3117.52  697.40
  -5  11   2 2147.80  459.82
  -5  11  -2 1219.31  458.47
   5  12   2    5.33   12.42
   5  12   2    2.87   14.18
  -5 -12   2    3.21    4.61
   5  12  -2   -1.82   23.11
   5  12  -2    7.58    9.51
   5 -12  -2    1.40    4.19
   5 -12  -2    4.55   15.20
  -5  12   2    4.34   14.31
  -5  12  -2    0.21   11.85
   5  13   2  109.42   34.09
   5  13   2   96.73   39.23
  -5 -13   2   69.18   40.80
   5  13  -2  110.01   39.93
   5  13  -2  135.50   40.92
   5 -13  -2  112.86   40.77
   5 -13  -2  138.91   39.66
  -5  13   2   82.07   31.11
  -5  13  -2   53.40   32.16
   5  14   2   65.79   22.43
  -5 -14  -2   14.74   18.85
  -5 -14   2   35.28   18.16
   5  14  -2   51.30   31.02
   5  14  -2   74.87   19.84
   5 -14  -2   52.31   18.32
  -5  14   2   60.50   19.22
  -5  14  -2   15.80   20.89
   5  15   2  418.70   95.94
  -5 -15  -2  115.71  135.09
   5  15  -2  196.89   94.25
   5  15  -2  435.95  135.75
   5 -15  -2  381.00  136.20
  -5  15   2  249.79   92.45
   5  16   2  304.85   86.82
  -5 -16  -2   89.73  122.20
   5  16  -2  412.76  123.35
   5 -16  -2  335.59  123.45
  -5  16   2  219.37   84.34
   5  17   2  124.61   35.05
  -5 -17  -2   28.67   34.11
   5  17  -2  154.61   36.94
   5 -17  -2   79.04   35.31
  -5  17   2   72.90   29.52
   5  18   2   18.74   21.72
   5  18  -2   25.85   14.51
   5 -18  -2   13.23    8.05
  -5  18   2   12.81   11.98
   5  19   2  495.04  161.45
   5  19  -2  808.15  240.73
   5 -19  -2  500.71  241.11
  -5  19   2  401.35  160.68
   5  20   2  400.30  196.83
   5  20  -2  823.46  296.65
   5 -20  -2  704.80  297.03
  -5  20   2  620.62  197.49
   5  21  -2  134.46   55.21
   5 -21  -2  132.17   53.16
  -5  21   2   70.20   41.83
   5  22  -2   15.17   17.53
   5 -22  -2   13.98   11.31
  -5  22   2   10.15   19.87
   5  23  -2   48.19   35.82
   5 -23  -2   76.86   30.64
  -5  23   2   58.27   34.20
   5  24  -2    3.05   22.90
   5 -24  -2   -1.15   10.01
  -5  24   2    5.09   32.14
  -5  25   2   14.53   45.23
  -6   0  -2   73.23   34.87
   6   0  -2  123.86   32.31
   6   1   2  763.59  370.73
  -6  -1  -2  586.47  373.66
  -6  -1   2  819.92  374.16
   6   1  -2 1376.66  373.24
   6  -1   2 1231.75  370.94
   6   2   2 1454.58  757.50
  -6  -2  -2 1326.81  760.72
  -6  -2   2  848.38  760.84
   6   2  -2 3319.18  760.63
   6  -2  -2 2413.92  758.27
   6  -2   2 3486.82  757.87
   6   3   2  957.00  515.96
  -6  -3   2 1064.15  518.32
   6   3  -2  920.40  339.49
   6   3  -2 1657.34  517.93
   6  -3  -2 1561.36  515.76
   6  -3   2  852.86  514.68
   6   4   2   88.53   30.20
   6   4   2  116.51   40.49
  -6  -4  -2   66.81   41.31
   6   4  -2   82.11   29.57
   6   4  -2  133.43   41.67
   6  -4  -2  143.19   39.47
   6  -4   2  124.77   38.64
   6   5   2  214.05   76.61
  -6  -5  -2  103.23   78.53
  -6  -5   2  171.10   79.14
   6   5  -2  164.84   53.99
   6   5  -2  314.61   78.87
   6  -5  -2  288.53   76.63
   6   6   2   52.09   21.37
   6   6   2   86.35   26.59
  -6  -6  -2   56.07   26.93
  -6  -6   2   59.47   27.00
   6   6  -2   67.40   21.24
   6   6  -2   66.77   27.38
   6  -6  -2   71.85   26.52
   6  -6  -2  101.72   25.35
   6  -6   2   63.18   25.90
   6   7   2  117.91   42.08
  -6  -7  -2   66.89   58.52
  -6  -7   2  112.49   59.31
   6   7  -2  122.56   41.64
   6   7  -2  211.91   59.27
   6  -7  -2  183.39   58.85
   6  -7  -2  204.13   56.86
   6  -7   2  156.17   58.32
   6   8   2  779.22  292.23
   6   8   2 1243.28  442.11
  -6  -8  -2  663.39  444.72
  -6  -8   2  981.41  445.61
   6   8  -2 1308.79  445.05
   6  -8  -2 1263.23  444.98
   6  -8  -2 1165.75  442.29
   6   9   2   45.45   17.77
  -6  -9   2   38.35   20.11
   6   9  -2   58.84   18.87
   6   9  -2   52.47   21.00
   6  -9  -2   65.96   19.91
   6  -9  -2   61.95   19.28
  -6   9   2   63.42   21.06
  -6   9  -2   24.49   16.82
   6  10   2  511.78  230.52
  -6 -10   2  397.26  234.57
   6  10  -2  477.37  155.59
   6  10  -2  783.48  234.07
   6 -10  -2  684.52  234.15
   6 -10  -2  715.16  231.38
  -6  10   2  446.53  155.48
  -6  10  -2  379.50  155.70
   6  11   2  303.84   81.79
   6  11   2  387.67  117.35
  -6 -11  -2  127.73  119.28
  -6 -11   2  279.18  120.33
   6  11  -2  414.44  120.17
   6 -11  -2  250.77  120.03
   6 -11  -2  436.62  117.77
  -6  11   2  333.22   83.54
  -6  11  -2  250.31   82.99
   6  12   2  296.94   77.25
  -6 -12  -2   74.56  112.28
  -6 -12   2  188.90  113.36
   6  12  -2  456.04  113.34
   6 -12  -2  311.13  113.49
   6 -12  -2  370.10  110.96
  -6  12   2  431.39   80.08
  -6  12  -2  218.02   79.15
   6  13   2  143.75   41.86
  -6 -13  -2   34.64   56.58
  -6 -13   2   74.62   57.54
   6  13  -2  124.65   44.13
   6  13  -2  230.73   57.96
   6 -13  -2  194.40   57.81
   6 -13  -2  170.13   55.83
  -6  13   2  182.40   43.37
  -6  13  -2   98.47   44.61
   6  14   2  219.24   58.94
   6  14   2  142.64   79.18
   6  14  -2  119.22   61.60
   6  14  -2  285.02   82.69
   6 -14  -2  168.61   82.43
  -6  14   2  173.00   57.64
   6  15   2  135.85   43.04
   6  15  -2   63.36   46.81
   6  15  -2  148.94   56.85
   6 -15  -2  139.97   56.90
  -6  15   2  115.32   41.79
   6  16   2   80.34   33.98
   6  16  -2   97.25   39.44
   6 -16  -2   93.57   38.85
  -6  16   2   88.66   33.24
   6  17   2  602.83  150.36
   6  17  -2  532.97  219.82
   6 -17  -2  518.03  220.50
  -6  17   2  425.77  147.28
   6  18   2  427.65  106.52
  -6 -18  -2  153.26  150.89
   6 -18  -2  462.31  152.23
  -6  18   2  280.71  103.10
   6  19   2  236.75   79.31
   6 -19  -2  263.74  109.81
  -6  19   2  243.29   76.24
   6  20   2   71.10   28.69
   6  20  -2   70.34   29.83
   6 -20  -2   46.22   21.99
  -6  20   2   41.53   24.32
   6  21   2   -1.80   19.75
   6  21  -2   -1.75   19.56
  -6  21   2    2.76   19.07
   6  22   2   14.44   50.01
   6  22  -2  136.03   69.71
   6 -22  -2  206.15   68.94
  -6  22   2  131.72   53.91
   6  23  -2   21.40   22.84
   6 -23  -2   32.10   15.40
  -6  23   2   19.97   19.73
   6 -24  -2    5.33   10.93
  -6  24   2    4.05   26.96
   7   0   2   10.82   15.05
  -7   0  -2    3.31    6.76
   7   0  -2   12.06   12.30
   7   1   2  293.03   79.39
  -7  -1  -2   93.91   80.79
  -7  -1   2  219.71   80.59
   7   1  -2  283.41   79.24
   7  -1  -2  380.26   79.25
   7   2   2  290.94   63.13
   7   2   2  302.51   91.20
  -7  -2  -2  174.12   92.62
  -7  -2   2  177.44   92.37
   7   2  -2  219.61   90.98
   7  -2  -2  453.58   90.26
  -7  -3  -2  915.29  676.97
  -7  -3   2 1354.70  677.08
   7   3  -2  936.61  442.29
   7   3  -2 3122.61  676.27
   7  -3  -2 2565.67  674.18
   7  -3   2 2849.59  674.40
   7   4   2 1243.70  388.06
   7   4   2 2318.59  590.05
  -7  -4  -2 1337.24  592.27
  -7  -4   2  543.19  592.31
   7   4  -2 1473.38  388.35
   7   4  -2 1878.40  591.92
   7  -4  -2 1749.47  589.54
   7  -4   2 3013.02  589.59
   7   5   2 1761.51  628.95
   7   5   2 2374.29  960.26
  -7  -5   2 1314.37  963.37
   7   5  -2 1874.53  628.86
   7   5  -2 3066.69  963.00
   7  -5  -2 3022.21  960.62
   7  -5   2 4417.72  960.53
   7   6   2  169.55   46.75
  -7  -6  -2  114.00   65.93
  -7  -6   2  148.79   66.66
   7   6  -2  152.41   46.16
   7   6  -2  152.64   66.23
   7  -6  -2  254.21   64.81
   7  -6   2  274.18   64.10
   7   7   2   75.82   22.10
   7   7   2   92.22   27.42
  -7  -7   2   57.23   26.88
   7   7  -2   75.46   22.04
   7   7  -2   47.18   25.84
   7  -7  -2  115.23   25.61
   7   8   2  126.58   57.81
  -7  -8   2  105.13   60.01
   7   8  -2  126.19   42.62
   7   8  -2  237.75   60.49
   7  -8  -2  141.82   59.61
   7  -8  -2  136.15   57.22
   7  -8   2  177.70   57.46
   7   9   2  212.11   49.59
   7   9   2  267.02   68.21
  -7  -9  -2   81.73   68.49
  -7  -9   2  111.64   69.40
   7   9  -2  230.16   49.57
   7   9  -2  181.19   68.96
   7  -9  -2  242.89   69.07
   7  -9  -2  218.22   66.87
   7  10   2  236.58   67.93
   7  10   2  238.66   95.45
  -7 -10   2  164.70   98.34
   7  10  -2  395.97   98.05
   7 -10  -2  329.42   97.89
   7 -10  -2  147.81   94.53
  -7  10   2  185.65   67.43
  -7  10  -2  114.91   66.88
   7  11   2    6.15   12.58
   7  11   2   12.15   15.10
  -7 -11   2   12.70    8.28
   7  11  -2   20.13   17.72
   7  11  -2   46.02   13.39
   7 -11  -2   22.95    9.00
   7 -11  -2   14.18   10.49
  -7  11   2   17.79   14.30
   7  12   2   51.31   17.82
   7  12   2   46.86   21.82
  -7 -12  -2   14.93   18.83
  -7 -12   2   26.47   17.75
   7  12  -2   34.52   19.53
   7  12  -2   82.15   20.30
   7 -12  -2   59.83   17.78
   7 -12  -2   48.29   17.55
  -7  12   2   62.11   23.57
  -7  12  -2   47.94   27.78
   7  13   2   23.78   19.20
   7  13  -2   49.40   17.62
   7 -13  -2   31.94   14.56
  -7  13   2   35.08   21.49
   7  14   2  242.54   73.56
   7  14   2  189.61  102.98
  -7 -14  -2   56.51  105.20
   7  14  -2  371.10  106.04
   7 -14  -2  297.97  106.50
  -7  14   2  199.44   73.11
   7  15   2    5.75   13.63
  -7 -15  -2    3.51   11.67
   7  15  -2   20.31   17.62
  -7  15   2    5.87   14.28
   7  16   2   10.11   14.80
   7  16  -2   -2.90   14.46
   7 -16  -2    2.48    5.62
  -7  16   2   -5.00   13.98
   7  17   2   19.01   26.07
   7  17  -2   20.55   15.54
   7 -17  -2   17.18    8.42
  -7  17   2   15.87   16.18
   7  18   2  240.37   68.34
   7  18  -2  269.05   86.32
   7 -18  -2  185.13   86.25
  -7  18   2  161.87   61.29
   7  19   2   89.14   41.22
  -7 -19  -2   15.92   17.63
   7  19  -2   56.17   23.32
   7 -19  -2   42.01   16.69
  -7  19   2   40.15   20.59
   7  20   2  129.88   46.60
   7  20  -2  109.73   52.78
   7 -20  -2  122.63   51.03
  -7  20   2  136.20   39.86
   7  21   2   -3.79   23.92
   7  21  -2    7.87   19.19
   7 -21  -2    2.29    6.16
  -7  21   2   -1.16   18.12
   7  22   2   -1.67   27.10
   7  22  -2   26.85   21.14
  -7  22   2   23.33   21.36
   7  23   2    0.65   28.06
   7  23  -2   91.85   38.32
  -7  23   2   81.58   30.72
   7 -24  -2    0.02   10.25
  -7  24   2   -2.45   24.86
   8   0   2   93.77   61.42
  -8   0  -2  177.77   64.02
   8   0  -2  107.42   60.73
   8   1   2 1410.57  344.15
  -8  -1  -2  383.38  345.66
  -8  -1   2  874.97  345.30
   8   1  -2  765.35  342.41
   8  -1  -2 1725.34  343.10
   8  -1   2 1166.17  342.88
  -8  -2  -2    2.15   17.23
  -8  -2   2   23.15   17.75
   8  -2  -2    3.06   17.02
   8  -2   2    5.54   14.72
   8   3   2  981.80  259.03
   8   3   2 1074.04  391.52
  -8  -3  -2  593.20  393.81
  -8  -3   2  471.57  393.83
   8   3  -2 1213.50  391.54
   8  -3  -2 2004.27  391.69
   8  -3   2 2699.75  392.20
   8   4   2 4272.60  884.70
  -8  -4  -2 2946.21 1354.79
  -8  -4   2 2691.10 1355.19
   8   4  -2 2748.26  883.34
   8   4  -2 3959.67 1353.09
   8  -4  -2 5336.65 1352.20
   8   5   2   -1.27   11.92
   8   5   2  -10.39   18.01
  -8  -5  -2    3.06    7.92
  -8  -5   2   -1.13    4.88
   8   5  -2    2.67   13.51
   8   5  -2   15.89   15.92
   8  -5  -2   -0.30   13.09
   8  -5   2    1.15   12.37
   8   6   2  128.55   37.63
   8   6   2  215.59   53.83
  -8  -6   2   67.92   51.82
   8   6  -2  107.90   51.84
   8  -6  -2  184.47   49.90
   8  -6   2  254.20   51.54
   8   7   2  620.64  237.57
  -8  -7  -2  277.23  239.98
  -8  -7   2  463.22  240.85
   8   7  -2  858.80  240.08
   8  -7  -2  849.27  237.65
   8  -7   2 1206.92  237.76
   8   8   2   72.61   26.48
  -8  -8  -2   31.72   20.80
  -8  -8   2   28.69   20.99
   8   8  -2   59.98   21.27
   8   8  -2   79.85   22.11
   8  -8  -2  101.55   21.11
   8  -8   2   93.12   20.12
   8   9   2   10.86   12.18
   8   9   2   11.40   16.31
  -8  -9  -2    2.84    8.32
  -8  -9   2    5.60    7.57
   8   9  -2    2.13    9.91
   8   9  -2   16.22   12.95
   8  -9  -2   13.66   11.76
   8  10   2  101.27   24.82
   8  10   2  109.82   32.12
  -8 -10  -2   25.43   29.63
  -8 -10   2   50.98   30.68
   8  10  -2   88.23   25.97
   8  10  -2   84.79   30.55
   8 -10  -2   97.06   29.94
   8 -10  -2  125.70   29.05
  -8  10   2   83.39   25.76
   8  11   2    4.27   14.13
   8  11   2   -5.25   20.18
  -8 -11  -2   -0.39   11.97
  -8 -11   2    0.70    4.89
   8  11  -2    5.82   11.00
   8 -11  -2    3.30    6.78
   8 -11  -2    6.02   12.87
  -8  11   2    2.13   11.45
  -8  11  -2   -4.02   13.61
   8  12   2   58.71   22.98
  -8 -12  -2    5.90   23.77
   8  12  -2   65.20   24.92
   8 -12  -2   86.88   23.91
  -8  12   2   72.07   24.10
   8  13   2    0.57   13.42
  -8 -13  -2   -0.86   10.76
   8  13  -2   -3.98   19.79
   8  13  -2   67.82   12.88
   8 -13  -2    3.53    8.73
  -8  13   2    8.98   20.39
   8  14   2   85.14   27.68
  -8 -14  -2    8.40   33.17
   8  14  -2   95.89   34.55
   8 -14  -2  101.48   33.59
  -8  14   2  110.24   30.37
   8  15   2   18.59   18.87
   8  15   2    5.25   23.45
   8  15  -2   66.36   16.28
   8 -15  -2   16.18   10.86
  -8  15   2   11.71   16.32
   8  16   2   11.04   15.63
   8  16  -2    1.86   13.12
   8 -16  -2    3.73    5.44
  -8  16   2    7.88   14.61
   8  17   2   17.74   24.98
   8 -17  -2   22.52    9.61
  -8  17   2   22.04   19.57
   8  18  -2    6.57   13.62
   8 -18  -2    6.52    5.98
  -8  18   2    6.92   15.20
   8  19   2   12.47   30.75
   8  19  -2    3.84   18.18
   8 -19  -2    2.98    6.11
  -8  19   2   -1.27   15.55
   8  20   2   79.53   38.86
  -8 -20  -2   15.66   24.35
   8  20  -2   61.33   28.76
   8 -20  -2   68.08   23.02
  -8  20   2   69.16   26.83
   8  21   2    0.29   30.53
   8  21  -2   29.00   25.40
   8 -21  -2   39.44   14.77
  -8  21   2   29.75   19.89
   8  22   2    2.69   36.01
   8  22  -2   97.50   42.24
   8 -22  -2   87.11   35.44
  -8  22   2   96.23   32.42
   8  23   2   -3.81   29.32
  -8  23   2   35.87   26.81
  -8  24   2  105.21   39.09
  -9   0  -2   80.11   65.37
   9   0  -2   16.32   61.96
   9   1   2 2515.13  921.77
  -9  -1  -2 1711.77  923.96
  -9  -1   2 1942.53  923.79
   9   1  -2 1612.01  921.45
   9  -1  -2 3483.16  921.31
   9  -1   2 4029.93  921.43
   9   2   2 1168.96  516.04
  -9  -2  -2  827.39  518.63
  -9  -2   2 1011.95  518.34
   9   2  -2 1854.44  516.71
   9  -2  -2 1797.68  515.96
   9  -2   2 2357.28  516.13
   9   3   2  805.80  280.69
  -9  -3  -2  433.24  282.84
  -9  -3   2  659.05  282.96
   9   3  -2 1037.40  281.15
   9  -3  -2 1058.51  280.45
   9   4   2  404.96  119.37
  -9  -4  -2  340.29  178.45
  -9  -4   2  355.64  178.76
   9   4  -2  458.18  175.89
   9  -4   2  958.28  177.14
   9   5   2   31.65   15.49
   9   5   2   19.89   18.59
  -9  -5  -2    4.07    7.84
  -9  -5   2    5.52    5.79
   9   5  -2   11.92    9.51
   9   5  -2   10.82   15.64
   9  -5  -2   37.55   14.46
   9  -5   2   38.67   15.61
   9   6   2  376.19  120.16
  -9  -6  -2  190.17  122.21
  -9  -6   2  117.20  122.18
   9   6  -2  494.24   85.01
   9   6  -2  423.47  121.10
   9  -6  -2  558.76  120.35
   9  -6   2  678.43  121.57
   9   7   2  235.77   63.45
   9   7   2  352.46   91.58
  -9  -7  -2   85.67   91.09
   9   7  -2  279.96   64.37
   9   7  -2  259.07   90.14
   9  -7  -2  412.48   90.04
   9   8   2   59.26   18.47
   9   8   2   48.87   23.31
  -9  -8  -2   20.70   19.48
  -9  -8   2   31.15   19.53
   9   8  -2   59.59   21.42
   9   8  -2   77.22   22.09
   9  -8  -2   95.90   22.76
   9  -8   2   88.12   19.40
   9   9   2    9.62   16.43
  -9  -9  -2    2.22    9.35
  -9  -9   2    2.56    7.28
   9   9  -2   12.75   16.69
   9   9  -2   11.30   15.30
   9  -9  -2   16.32   16.89
   9  -9   2   14.49    8.94
   9  10   2   59.23   16.97
   9  10   2   42.20   18.37
  -9 -10  -2   10.12   16.39
  -9 -10   2   22.63   14.56
   9  10  -2   48.90   17.25
   9  10  -2   81.47   18.37
   9 -10  -2   72.50   20.32
   9 -10   2   14.59   11.99
   9  11   2   52.74   30.18
  -9 -11  -2    6.71   26.08
   9  11  -2   51.58   23.17
   9  11  -2   70.28   27.69
   9 -11  -2   97.53   26.23
  -9  11   2   64.88   23.11
   9  12   2  152.66   43.15
  -9 -12  -2   17.82   56.89
   9  12  -2   67.35   42.65
   9  12  -2  174.87   57.17
   9 -12  -2  214.71   57.12
  -9  12   2  119.54   41.85
   9  13   2   25.43   17.90
   9  13  -2   26.23   16.72
   9 -13  -2   26.18   11.08
  -9  13   2   20.14   19.63
   9  14   2  162.64   93.28
   9  14  -2  267.69   96.45
   9 -14  -2  220.27   96.38
  -9  14   2  247.36   69.79
   9  15   2   37.36   21.53
   9  15   2   34.78   30.32
   9  15  -2   68.02   23.76
   9 -15  -2   46.22   19.75
  -9  15   2   46.74   21.86
   9  16  -2   24.73   20.44
   9 -16  -2   16.47    8.33
  -9  16   2   14.45   15.26
   9  17   2  138.89   49.72
   9  17  -2  170.27   67.13
   9 -17  -2  166.90   67.21
  -9  17   2  121.24   48.92
   9  18   2  237.80   79.99
   9  18  -2  341.12  113.25
   9 -18  -2  250.28  111.24
  -9  18   2  256.98   77.54
   9  19  -2  279.71   98.34
   9 -19  -2  228.13   97.02
  -9  19   2  169.35   68.41
   9  20   2    8.89   39.70
   9  20  -2   -1.04   24.60
   9 -20  -2   -0.11    6.42
  -9  20   2    1.39   16.48
   9  21   2    8.66   39.89
   9  21  -2   43.56   26.91
   9 -21  -2   55.65   22.15
  -9  21   2   67.26   24.19
   9  22   2   12.40   30.88
   9 -22  -2    5.43    8.02
  -9  22   2   11.02   16.67
  -9  23   2   22.40   26.95
  10   0   2  325.41   82.76
 -10   0  -2   80.93   83.32
  10   0  -2  656.12   83.08
  10   1   2   21.50   19.32
 -10  -1  -2   -0.25    7.90
 -10  -1   2    9.21    9.61
  10   1  -2   56.66   21.39
  10  -1   2    1.94   18.64
  10   2   2  816.81  291.73
 -10  -2  -2  489.82  293.92
 -10  -2   2  496.20  293.98
  10   2  -2 1002.29  292.87
  10  -2  -2  898.08  291.55
  10  -2   2 1458.80  292.15
  10   3   2    6.55   19.29
 -10  -3  -2    1.18    8.54
 -10  -3   2    4.16    7.73
  10   3  -2   52.97   19.38
  10   4   2  284.84   67.65
  10   4   2  401.48   97.51
 -10  -4  -2  147.02   98.09
 -10  -4   2  109.29   97.99
  10   4  -2  299.84   97.19
  10  -4  -2  430.87   96.42
  10  -4   2  526.95   97.20
  10   5   2  287.39   47.04
  10   5   2  397.35   67.87
 -10  -5  -2   64.04   64.42
 -10  -5   2   72.41   64.45
  10   5  -2  325.35   64.04
  10  -5  -2  389.30   64.52
  10   6   2  163.88   47.97
 -10  -6  -2   83.38   47.16
 -10  -6   2   36.55   46.96
  10   6  -2  157.18   35.28
  10   6  -2  156.51   46.70
  10  -6  -2  222.27   47.27
  10  -6   2  310.85   48.08
  10   7   2  366.99   63.24
  10   7   2  416.24   88.68
 -10  -7  -2  109.48   87.42
 -10  -7   2   61.45   87.48
  10   7  -2  406.65   65.11
  10  -7  -2  456.92   86.99
  10  -7   2  509.87   86.50
  10   8   2  153.26   32.22
  10   8   2  191.59   42.35
 -10  -8   2   19.69   39.71
  10   8  -2  145.30   33.46
  10   8  -2  126.89   39.91
  10  -8  -2  189.11   40.94
  10  -8   2  166.22   40.08
  10   9   2  852.25  201.19
  10   9   2 1017.23  300.26
 -10  -9  -2  239.99  302.22
  10   9  -2  820.09  201.04
  10   9  -2  715.89  300.16
  10  -9   2  987.97  302.65
  10  10   2 1108.87  191.77
  10  10   2  815.55  283.99
 -10 -10  -2  223.53  286.15
  10  10  -2  834.40  191.50
  10  10  -2  991.38  284.84
  10 -10   2  707.57  286.75
  10  11   2  252.40   50.89
  10  11   2  191.15   68.20
  10  11  -2  164.71   50.73
  10  11  -2  225.78   67.10
 -10  11   2  205.79   50.42
  10 -11   2  109.68   68.84
  10  12  -2   10.18   11.60
  10 -12  -2    8.53    6.29
 -10  12   2   11.00   13.25
  10  13   2  156.37   59.11
  10  13   2  132.35   81.28
  10 -13  -2  227.69   82.26
 -10  13   2  183.11   59.55
  10  14   2   25.68   20.13
  10  14   2   11.32   20.88
  10 -14  -2   40.97   14.48
 -10  14   2   42.65   23.30
  10  15   2   23.40   17.22
  10  15   2    1.72   29.53
  10 -15  -2   15.45    7.75
 -10  15   2   14.28   19.13
  10  16   2   29.05   20.05
  10  16  -2   41.08   16.60
  10 -16  -2   30.95   14.38
 -10  16   2   59.32   20.40
  10  17   2   -1.12   13.46
  10  17  -2    4.29   13.98
  10 -17  -2    2.69    5.82
 -10  17   2   -5.46   14.65
  10  18   2   -1.63   31.15
  10  18  -2  117.45   39.63
  10 -18  -2   99.89   37.17
 -10  18   2   90.06   31.31
  10  19   2    2.09   47.02
  10 -19  -2  149.44   58.93
 -10  19   2  213.79   47.15
  10  20   2   -7.55   58.31
  10  20  -2  209.00   74.12
  10 -20  -2  189.06   73.50
 -10  20   2  186.02   54.39
  10  21   2   10.81   82.79
  10  21  -2  260.88  108.75
  10 -21  -2  283.20  109.51
 -10  21   2  228.15   77.09
  10  22   2    1.43   39.84
  10 -22  -2   51.00   21.07
 -10  22   2   51.25   28.58
  11   0   2    6.92   20.49
 -11   0  -2   -0.75    8.92
  11   0  -2    1.49   20.53
  11   1   2   35.42   20.47
 -11  -1  -2    8.48   11.23
 -11  -1   2    5.58   10.39
  11   1  -2   37.45   18.92
  11  -1  -2   35.44   15.05
  11  -1   2   70.09   20.01
  11   2   2   86.09   26.96
 -11  -2  -2    8.97   22.19
 -11  -2   2   44.05   20.99
  11   2  -2   86.13   24.80
  11  -2  -2   64.37   22.14
  11  -2   2  140.65   25.22
  11   3   2    5.37   20.70
 -11  -3  -2    0.02   10.51
 -11  -3   2    0.20    7.41
  11   3  -2    5.81   16.80
  11  -3  -2    3.32   15.55
 -11   3  -2    3.49   12.73
  11   4   2   19.66   21.21
 -11  -4  -2   -4.10    8.28
 -11  -4   2   11.15    8.07
  11   4  -2   23.16   16.81
  11  -4  -2   29.59   15.22
 -11   4  -2   19.03   11.56
  11  -4   2   41.02   20.22
  11   5   2   83.30   20.30
  11   5   2   88.45   27.58
 -11  -5  -2   15.64   22.51
 -11  -5   2   24.67   22.17
  11   5  -2   80.26   26.23
  11  -5  -2  120.64   25.02
 -11   5  -2   61.84   25.03
  11  -5   2  127.30   28.38
  11   6   2  620.85  133.10
  11   6   2  781.40  196.15
 -11  -6  -2  242.21  197.37
  11   6  -2  390.98  131.88
  11   6  -2  396.80  195.47
  11  -6  -2  718.39  195.70
 -11   6  -2  325.51  194.76
  11  -6   2  893.74  196.06
  11   7   2  866.85  328.71
  11   7  -2  853.04  220.12
  11   7  -2  758.53  328.27
 -11   7  -2  342.72  327.83
  11  -7   2 1126.21  328.73
  11   8   2  503.40  110.42
  11   8   2  540.56  160.07
  11   8  -2  356.20  111.52
  11   8  -2  409.79  159.63
  11  -8   2  260.20  160.96
  11   9   2  225.24   55.09
  11   9   2  205.57   74.85
  11   9  -2  144.59   56.26
  11   9  -2  175.29   73.50
  11  -9   2  176.87   76.31
  11  10   2  171.04   42.21
  11  10   2  147.67   55.43
  11  10  -2   87.74   43.44
  11  10  -2  153.51   53.96
  11  11   2  100.58   20.81
  11  11   2   99.23   30.94
  11 -11   2   20.92   17.95
  11  12   2 1453.30  351.97
  11  12  -2 1155.73  530.07
 -11  12   2 1171.29  350.87
  11  13   2   69.03   26.27
  11  13   2   56.06   32.60
  11  13  -2   74.63   26.31
  11 -13  -2   66.87   26.91
 -11  13   2   61.52   24.95
  11  14   2  111.06   38.04
  11  14   2   51.22   48.32
  11  14  -2  101.52   46.29
  11 -14  -2  136.61   49.07
 -11  14   2  127.45   40.67
  11  15   2  290.36   99.17
  11  15   2  197.47  141.33
  11  15  -2  305.85  140.85
  11 -15  -2  385.97  144.47
 -11  15   2  377.14  101.02
  11  16   2   26.01   17.28
  11  16  -2   24.10   15.66
  11 -16  -2   28.26   11.57
 -11  16   2   28.31   18.28
  11  17   2    0.37   14.31
  11  17   2   -1.95   29.73
  11 -17  -2    3.24    6.03
 -11  17   2   48.89   17.44
  11  18   2   -4.70   99.69
  11 -18  -2  408.42  148.63
 -11  18   2  355.09  102.18
  11  19   2    1.41   15.97
  11  19  -2   11.85   25.38
  11 -19  -2    3.50    5.77
 -11  19   2   -0.46   15.48
  11  20   2    7.01   61.44
  11  20  -2  180.10   75.78
  11 -20  -2  210.73   75.56
 -11  20   2  111.85   55.06
  11  21   2    5.83   42.23
  11  21  -2    8.03   31.22
  11 -21  -2    6.21    8.08
 -11  21   2    7.06   23.45
 -11  22   2   26.75   25.82
  12   0   2  294.44  152.47
  12   0  -2  439.87  152.88
  12   1   2  158.85   72.54
  12   1  -2  192.19   73.38
  12   2   2  191.50   91.68
  12   2  -2  304.29   92.55
  12  -2  -2  255.07   91.73
 -12   2  -2  136.08   90.23
  12   3   2   -8.84   28.72
  12   3  -2   -4.00   19.95
  12  -3  -2    3.82   17.68
 -12   3  -2    2.13   17.62
  12  -3   2    5.47   18.22
  12   4   2  308.14  100.15
  12   4  -2  288.62  100.42
 -12   4  -2  124.51   97.99
  12   5   2   38.56   22.80
  12   5  -2   17.44   18.36
  12   6   2   27.41   18.67
  12   6   2   52.29   24.64
  12   6  -2   45.91   22.02
  12  -6   2   43.86   22.96
  12   7   2    1.04   22.83
  12   7  -2   -0.73   18.15
  12  -7   2   -2.38   16.76
  12   8   2  194.61   73.47
  12   8  -2  203.45   74.36
 -12   8  -2  134.78   74.17
  12   9   2   93.30   28.78
  12   9   2   58.99   38.70
  12   9  -2   94.80   37.04
  12  10   2  229.22   63.04
  12  10   2  165.25   86.18
  12  10  -2  226.77   87.71
  12  11   2   55.39   22.08
  12  11   2   38.19   32.78
  12  11  -2   26.62   24.10
  12  12   2  234.30   59.79
  12  12   2  134.76   81.57
  12  12  -2  221.08   82.04
 -12  12   2  196.91   58.67
  12  13   2    8.56   17.71
  12  13  -2   84.21   26.07
 -12  13   2   17.63   17.30
  12  14   2 1398.00  465.64
  12  14   2 1043.57  705.23
  12  14  -2 1503.70  706.26
  12 -14  -2 1829.03  709.88
 -12  14   2 1900.41  466.41
  12  15   2    6.19   15.03
  12  15  -2    1.54   24.04
  12 -15  -2    9.04    7.44
 -12  15   2    3.41   19.79
  12  16   2    2.22  346.76
  12  16   2   -6.12  523.74
  12  16  -2 1209.51  525.92
  12 -16  -2 1847.39  529.13
 -12  16   2 1190.90  348.64
  12  17   2    3.78   16.84
  12  17  -2   34.17   29.20
  12 -17  -2   31.80   10.70
 -12  17   2    7.48   17.04
  12  18   2    3.39   15.59
  12 -18  -2   10.63    7.52
 -12  18   2    4.48   11.29
  12  19   2    1.10   16.00
  12  19  -2    7.30   29.32
  12 -19  -2    6.28    6.05
 -12  19   2    2.73   15.58
  12  20   2    4.43   45.61
  12  20  -2   86.90   60.39
  12 -20  -2  168.39   58.15
 -12  20   2  102.26   49.02
  12 -21  -2   11.22   10.43
 -12  21   2   12.41   25.16
  13   0   2    0.67   24.08
  13   1   2   -6.66   24.74
  13   1  -2   10.33   16.89
 -13   1  -2    5.94   14.97
  13   2   2    7.18   25.12
  13   2  -2   10.30   16.30
 -13   2  -2   15.39   18.17
  13   3   2   87.05   35.04
  13   3  -2   88.91   30.12
 -13   3  -2   36.40   27.62
  13   4   2    3.21   20.97
  13   4  -2   13.56   16.18
 -13   4  -2    6.66   26.47
  13   5   2   55.68   27.16
  13   5  -2   56.07   24.71
  13   6   2  846.00  239.67
  13   6   2  813.95  359.69
  13   6  -2  892.42  360.47
  13   7   2  729.32  156.00
  13   7   2  653.71  228.88
  13   7  -2  490.32  228.95
 -13   7  -2  354.79  228.42
  13   8   2  171.16   50.84
  13   8   2  178.51   67.23
  13   8  -2  132.32   64.47
  13   9   2  400.10  114.12
  13   9   2  406.17  165.73
  13   9  -2  387.34  165.99
  13  10   2    5.91   25.16
  13  10  -2    8.45   18.54
  13  11   2   20.10   18.93
  13  11   2   22.68   31.43
  13  11  -2    8.49   18.62
  13  12   2 1066.97  335.79
  13  12  -2  680.93  334.97
 -13  12   2  710.93  223.18
  13  13   2  378.26   86.82
  13  13  -2  282.76  121.62
 -13  13   2  240.77   84.13
  13  14   2   -7.71   21.91
  13  14   2    4.56   19.99
  13  14  -2    8.44   19.90
  13 -14  -2   11.59    6.63
 -13  14   2    8.87   16.23
  13  15   2    9.03  109.54
  13  15  -2  286.19  161.20
  13 -15  -2  501.84  163.10
 -13  15   2  480.76  113.27
  13  16   2    0.34   19.37
  13  16   2    3.80   36.49
  13  16  -2   -4.05   25.27
  13 -16  -2   -3.94    8.51
 -13  16   2   -9.31   18.14
  13  17   2    5.10   25.30
  13  17   2   -0.20   37.31
  13  17  -2   38.73   30.79
  13 -17  -2   84.47   22.45
 -13  17   2   38.24   23.01
  13  18   2   -2.60   59.54
  13  18  -2  106.30   85.29
  13 -18  -2  271.00   85.19
 -13  18   2  146.57   60.55
  13  19   2    8.02   21.98
  13  19  -2    9.60   30.32
  13 -19  -2   59.17   20.33
 -13  19   2   48.14   26.05
  13 -20  -2   25.95   12.33
 -13  20   2   26.45   27.46
  14   0   2  293.06  122.14
  14   1   2   18.12   26.45
  14   1  -2   14.26   24.55
 -14   1  -2    6.60   15.53
  14   2   2  182.65   59.86
  14   2  -2  144.39   57.26
 -14   2  -2   93.34   55.24
  14   3   2  103.13   36.89
  14   3  -2   84.07   37.07
 -14   3  -2   60.36   41.02
  14   4   2  496.17  205.14
  14   4  -2  484.78  204.76
  14   5   2    9.30   13.99
  14   5   2   21.06   21.74
  14   5  -2    5.05   17.54
  14   6   2  231.21   84.79
  14   6   2  318.43  122.34
  14   6  -2  362.84  122.18
  14   7   2   98.14   38.14
  14   7   2  136.33   54.29
  14   7  -2  124.19   48.68
  14   8   2  644.46  193.80
  14   8  -2  321.76  191.85
  14   9   2  717.00  162.18
  14   9   2  793.70  238.66
  14   9  -2  473.87  237.18
 -14   9  -2  332.48  237.66
  14  10   2  720.05  178.22
  14  10   2  560.07  262.29
  14  10  -2  572.44  263.33
  14  11   2    2.80   16.95
  14  11   2    9.44   26.24
  14  11  -2    3.11   18.80
  14  12  -2   10.56   20.99
 -14  12   2    0.45   16.69
  14  13   2   -1.47   20.07
  14  13   2    1.33   17.98
  14  13  -2   23.28   21.15
 -14  13   2   19.41   13.75
  14  14   2    0.31   27.51
  14  14  -2    1.17   21.42
 -14  14   2    6.06   15.52
  14  15   2   -2.49   17.61
  14  15   2    8.22   31.90
  14  15  -2   13.05   25.06
  14 -15  -2   25.27    9.40
 -14  15   2   37.16   21.57
  14  16   2   -2.48   20.31
  14  16   2   -2.11   46.51
  14  16  -2   -1.19   26.37
  14 -16  -2    2.81    7.77
 -14  16   2   -0.89   18.85
  14  17   2    1.30   16.75
  14  17  -2    1.20   27.75
  14 -17  -2   -1.76    7.17
 -14  17   2   11.04   15.63
  14  18  -2    4.63   25.45
  14 -18  -2   -0.70    8.41
 -14  18   2    3.93   14.06
  14 -19  -2   97.32   37.13
 -14  19   2   33.95   33.22
  15   0   2   97.31   46.49
  15   1   2 1842.25  876.94
  15   1  -2 2996.05  877.71
 -15   1  -2 1492.25  877.19
  15   2   2  475.62  196.33
  15   2  -2  466.75  196.59
 -15   2  -2  466.89  198.01
  15   3   2   40.95   27.34
  15   3  -2   57.13   31.02
 -15   3  -2   53.90   30.92
  15   4   2  191.16   61.36
  15   4  -2  157.59   60.81
 -15   4  -2   89.56   64.97
  15   5   2  112.77   41.70
  15   5   2  146.95   56.83
  15   5  -2  149.27   54.41
  15   6   2   71.85   34.40
  15   6   2  178.94   51.75
  15   6  -2  101.44   43.68
  15   7   2    4.05   18.23
  15   7   2   12.45   39.03
  15   7  -2    4.98   18.62
 -15   7  -2   16.39   31.61
  15   8   2   59.77   30.35
  15   8   2   54.41   36.52
  15   8  -2   56.51   25.82
  15   9   2   32.67   21.50
  15   9   2   30.13   27.73
  15   9  -2   40.80   20.98
  15  10   2    0.15   19.40
  15  10   2   49.87   28.13
  15  10  -2   47.49   20.92
  15  11   2    0.97   21.08
  15  11   2    5.50   18.37
  15  11  -2    7.31   19.31
  15  12   2    5.96   25.00
  15  12   2   11.25   32.88
  15  12  -2   81.49   26.95
 -15  12   2  102.08   22.76
  15  13   2    8.42   20.51
  15  13   2   -2.77   20.60
  15  13  -2    7.75   24.33
 -15  13   2    3.81   12.49
  15  14   2    2.40   24.04
  15  14   2    6.02   23.65
  15  14  -2   52.89   27.06
 -15  14   2   69.56   20.39
  15  15   2    5.11   28.70
  15  15   2   -4.59   36.78
  15  15  -2   32.98   31.07
  15 -15  -2   87.61   24.30
 -15  15   2   50.42   27.48
  15  16   2    3.78   17.52
  15  16  -2   -2.54   22.24
  15 -16  -2   -4.81   13.74
 -15  16   2   -0.67   16.78
  15  17  -2    9.54   29.18
  15 -17  -2   15.62   11.09
 -15  17   2   13.41   16.50
  15 -18  -2   71.87   26.16
 -15  18   2   22.28   23.90
  16   0   2  362.77  151.16
  16   1   2  222.08   99.66
  16   1  -2  317.24  101.49
 -16   1  -2  194.01  101.20
  16   2   2   13.73   23.89
  16   2  -2   23.29   29.68
 -16   2  -2    6.98   28.62
  16   3  -2 2247.43  684.09
 -16   3  -2 1079.32  683.93
  16   4   2  410.76  248.88
  16   4  -2  972.29  250.62
 -16   4  -2  427.90  249.59
  16   5   2   17.01   18.48
  16   5   2    9.71   32.48
  16   5  -2   11.04   26.96
 -16   5  -2    7.47   28.85
  16   6   2   -2.47   23.09
  16   6   2  112.72   37.37
  16   6  -2  107.69   33.07
 -16   6  -2   47.77   40.32
  16   7   2   -1.20   21.95
  16   7   2   59.25   33.95
  16   7  -2   44.82   23.98
  16   8   2   81.94   36.36
  16   8  -2   50.11   24.59
 -16   8  -2   23.79   40.40
  16   9   2   -3.43   18.73
  16   9   2   12.88   28.75
  16   9  -2    8.02   19.39
 -16   9  -2    8.66   31.76
  16  10   2   67.81   33.83
  16  10  -2   47.58   26.64
  16  11   2   -4.25   27.38
  16  11  -2   13.24   20.52
  16  12   2   -2.83   19.84
  16  12   2   -3.24   20.47
  16  12  -2   -4.17   21.37
 -16  12   2    4.53   13.08
  16  13   2  -10.87   27.16
  16  13   2   -1.93   21.66
  16  13  -2   17.01   21.58
 -16  13   2   39.77   14.58
  16  14   2    1.48   25.62
  16  14  -2   14.80   22.11
 -16  14   2    4.67   15.10
  16  15  -2    1.10   21.99
  16 -15  -2    4.38    9.51
 -16  15   2    8.81   17.16
 -16  16   2   13.61   18.01
  17   0   2   -3.16   24.79
  17   1   2   12.21   16.14
  17   1  -2   15.10   23.81
  17   2   2   -1.78   25.28
  17   2  -2    7.87   26.83
 -17   2  -2   -3.07   30.75
  17   3   2  242.64  115.27
  17   3  -2  330.55  115.81
 -17   3  -2  260.29  116.55
  17   4   2  409.58  112.18
  17   4  -2  265.51  109.54
 -17   4  -2  135.04  109.67
  17   5   2  815.73  297.87
  17   5  -2  957.00  297.95
 -17   5  -2  406.66  298.42
  17   6   2    0.39   24.53
  17   6   2  145.72   42.42
  17   6  -2  143.84   38.63
 -17   6  -2   52.60   46.18
  17   7   2    0.99   20.36
  17   7   2   66.86   35.51
  17   7  -2   74.26   31.46
 -17   7  -2   25.17   34.22
  17   8   2   -0.70   26.21
  17   8   2    1.32   24.10
  17   8  -2   -7.09   29.22
 -17   8  -2    7.98   34.23
  17   9   2    3.52   19.76
  17   9   2   -3.74   23.59
  17   9  -2    7.25   29.16
  17  10   2    0.15   24.92
  17  10  -2  131.89   35.90
  17  11   2    1.60   27.52
  17  11  -2   49.84   30.41
  17  12   2   -3.70   21.09
  17  12   2    1.97   20.76
  17  12  -2   11.18   29.63
 -17  12   2   27.79   14.11
  17  13   2    0.91   23.79
  17  13  -2    9.10   27.29
 -17  13   2   20.79   19.64
  17  14  -2   -7.07   29.27
 -17  14   2    3.46   18.95
  17 -15  -2   -2.49   10.03
 -17  15   2    9.58   17.21
  18   0   2    4.54   25.73
  18   1   2   36.90   27.29
  18   1  -2   17.72   24.13
  18   2   2  186.24  113.44
  18   2  -2  343.53  112.87
  18   3   2  586.85  201.37
  18   3  -2  385.39  199.39
  18   4   2   76.30   40.43
  18   4  -2   45.50   32.63
  18   5   2   83.21   45.81
  18   5  -2   85.25   41.00
  18   6   2   -2.55   19.83
  18   6   2    3.24   35.51
  18   6  -2    6.11   30.40
  18   7   2    0.13   23.81
  18   7   2    6.13   30.82
  18   7  -2    7.50   30.81
  18   8   2   -5.72   31.99
  18   8   2   97.25   40.67
  18   8  -2  144.19   41.11
  18   9   2   -1.71   26.30
  18   9  -2   28.30   32.19
  18  10   2    7.84   28.64
  18  10  -2   15.92   33.38
  18  11   2   -0.15   40.28
  18  11  -2   28.71   35.17
  18  12  -2    3.07   30.01
 -18  12   2   33.07   21.19
 -18  13   2   14.11   20.21
  19   0   2    5.49   27.27
  19   1   2    6.64   31.96
  19   1  -2    7.83   25.72
  19   2   2   -0.85   36.69
  19   2  -2    7.10   25.19
  19   3   2   40.41   36.89
  19   3  -2   26.63   25.80
  19   4   2    1.89   37.13
  19   4  -2   -0.35   25.50
  19   5   2    1.00   36.66
  19   5  -2   11.53   25.20
  19   6   2   15.66   31.36
  19   6  -2    9.85   32.88
  19   7   2  -10.35   36.77
  19   7  -2    4.38   40.91
  19   8   2    9.52   34.80
  19   8  -2   -1.11   33.66
  19   9   2   -4.89   47.24
  19   9  -2   62.04   35.18
  20   0   2    2.38   54.67
  20   1   2   -2.02   45.48
  20   1  -2  -15.52   41.56
  20   2   2   45.76   55.03
  20   2  -2   -1.95   35.28
  20   3   2    1.78   45.35
  20   3  -2   -3.59   35.49
  20   4   2   42.10   45.10
  20   4  -2   15.67   34.06
  20   5   2    3.25   38.29
  20   5  -2    0.44   34.96
  20   6   2   -0.27   38.35
  20   6  -2    2.89   34.22
   0   0   3    3.01    6.23
   0   0  -3   -1.01    5.16
   0   1   3    4.60    6.79
   0  -1  -3    2.16    4.73
   0  -1   3   -1.47    5.08
   0   1  -3    3.29    6.64
   0   2   3    2.22    5.08
   0  -2  -3    6.54    4.42
   0  -2   3   -1.09    4.02
   0   3   3   55.84   22.61
   0  -3   3   42.53   22.14
   0   3  -3   68.10   22.74
   0   4   3   23.36    9.01
   0   4  -3   15.39    8.76
   0   5   3   62.55   24.84
   0   5  -3   58.67   24.70
   0   6   3    0.47    8.30
   0  -6  -3    3.64    8.71
   0  -6   3    1.33    6.91
   0   6  -3    5.96    6.98
   0  -7  -3  393.77  191.31
   0  -7   3  469.77  191.04
   0   7  -3  814.90  289.94
   0  -8   3    4.65   10.74
   0   8  -3    3.57    7.23
   0   9  -3  264.75  111.47
   0 -10  -3    3.79   10.68
   0 -10   3   -0.03   14.51
   0  10  -3    2.44    7.27
   0 -11  -3   -0.86   12.90
   0 -11   3    7.60   18.22
   0  11  -3    1.77    7.42
   0 -12  -3    0.56   13.48
   0  12  -3    1.64    7.34
   0 -13   3  658.08  242.85
   0  13  -3  893.74  366.28
   0 -14   3    9.32   18.53
   0  14  -3    9.56    8.06
   0 -15   3 2085.10  981.38
   0  15  -3 3844.44 1503.99
   0 -16   3    0.35   16.40
   0  16  -3    4.10    9.33
   0 -17   3   15.78   14.34
   0  18  -3   -0.42   10.56
   0  19  -3   51.87   22.19
   0  20  -3   -1.87   11.45
   0  21  -3  278.93  117.20
   0  22  -3    1.56   14.98
   0  23  -3  124.64   53.91
  -1   0  -3    7.23    3.71
   1   0  -3    9.01    5.35
   1   1  -3  190.46   76.05
   1  -1  -3  181.90   76.18
  -1   1  -3  141.52   52.77
   1  -1   3  182.83   76.26
   1   2   3   46.51   18.89
  -1  -2  -3   26.84   18.07
  -1  -2   3   35.80   17.81
   1   2  -3   68.84   18.47
   1  -2  -3   47.06   18.38
  -1   2   3   29.87   14.52
   1  -2   3   69.59   18.19
  -1  -3  -3  351.29  158.83
  -1  -3   3  353.75  158.55
   1  -3  -3  439.31  158.98
  -1   3  -3  208.36  105.52
   1  -3   3  404.57  158.34
   1   4   3   38.17   16.17
  -1  -4  -3   29.11   15.36
  -1  -4   3   33.33   15.02
   1   4  -3   57.48   15.94
   1  -4  -3   42.55   15.81
  -1   4  -3   18.84   13.47
  -1  -5  -3    7.96    8.98
  -1  -5  -3    9.20    7.62
  -1  -5   3   12.16    7.59
   1   5  -3   23.40    8.80
   1  -5  -3   31.37    8.89
   1  -5   3   13.18    8.57
   1   6   3  936.07  321.21
  -1  -6  -3  579.29  323.38
  -1  -6   3  697.85  323.51
   1   6  -3  885.04  323.98
   1  -6  -3  729.70  324.24
  -1   6  -3  455.55  213.41
   1  -6   3 1013.78  323.03
  -1  -7  -3 1377.56  414.27
  -1  -7   3 1488.52  631.53
   1   7  -3 1659.85  631.80
  -1   7   3 1216.02  413.46
  -1   7  -3 1507.84  414.04
   1  -7   3  892.57  627.48
  -1  -8   3  639.70  303.05
   1   8  -3  922.68  303.28
   1  -8  -3  638.49  303.48
  -1   8   3  571.94  199.93
  -1  -9  -3   26.06   17.56
   1   9  -3   39.31   13.97
   1  -9  -3   33.73   13.72
  -1   9   3   15.82   13.85
  -1   9  -3   13.10   19.80
  -1 -10  -3   57.06   36.17
   1  10  -3  135.04   46.84
   1 -10  -3  115.92   46.94
  -1  10   3   89.93   34.67
  -1  10  -3   54.90   37.36
   1  11  -3  103.57   36.31
   1 -11  -3   91.35   36.37
  -1  11   3   54.36   27.19
  -1  11  -3   34.10   29.34
  -1 -12  -3   11.66   17.92
   1  12  -3   41.05   15.91
   1 -12  -3   47.77   15.59
  -1  12   3   20.40   15.33
  -1  12  -3    9.99   16.47
   1  13  -3 1495.23  553.72
   1 -13  -3 1147.11  553.74
  -1  13   3 1196.94  363.80
   1  14  -3  460.76  192.20
   1 -14  -3  448.47  192.28
  -1  14   3  448.29  130.78
   1  15  -3   18.73   12.22
   1 -15  -3   17.21   10.57
  -1  15   3   64.32   29.84
   1  16  -3  489.92  182.46
   1 -16  -3  381.39  182.43
   1  17  -3  321.98  116.02
   1 -17  -3  258.56  115.93
  -1  17   3  142.91   81.94
   1  18  -3   22.93   12.34
   1 -18  -3   14.06    8.69
  -1  18   3    4.01   30.29
   1  19  -3   44.73   16.80
   1 -19  -3   29.41   15.11
  -1  19   3   14.76   34.62
   1  20  -3   -0.77   11.97
   1 -20  -3    5.84    8.37
  -1  20   3    2.02   25.23
   1  21  -3  143.70   57.51
   1 -21  -3  131.59   57.42
   1  22  -3   79.12   34.90
   1 -22  -3   81.86   34.04
   1  23  -3   72.75   39.30
   1 -23  -3  111.74   40.55
   2   0   3    9.73    7.73
   2   0  -3    3.43    4.50
   2   1   3  918.40  289.47
  -2  -1   3  544.29  290.18
   2   1  -3  735.81  289.86
   2   2   3   48.26   10.27
  -2  -2   3    6.84    5.70
   2   2  -3    9.26    7.54
   2  -2  -3    4.73    6.11
   2  -2   3   13.13    6.67
   2   3   3   79.31   26.89
  -2  -3   3   58.29   27.13
   2   3  -3   55.34   27.01
   2  -3  -3   75.28   27.28
  -2   3  -3   45.99   21.40
   2  -3   3   70.28   26.74
  -2  -4   3   55.67   29.56
   2   4  -3  110.32   29.57
   2  -4  -3   69.94   29.75
  -2   4   3   56.95   22.74
  -2   4  -3   47.41   23.56
   2  -4   3   76.25   28.59
   2   5   3   28.24   13.05
  -2  -5   3   17.53   10.50
   2   5  -3   44.04   11.91
   2  -5  -3   28.03   11.05
  -2   5   3   23.52   14.30
  -2   5  -3   13.89   11.15
   2   6   3   18.35   15.74
  -2  -6  -3    3.77    3.28
  -2  -6   3    3.86    4.12
   2   6  -3   11.94    8.29
   2  -6  -3    9.57    5.63
  -2   6   3    2.21    8.44
   2  -6   3    1.84   11.21
   2   7   3  950.80  116.08
  -2  -7   3  184.88  116.17
   2   7  -3  355.21  116.15
   2  -7  -3  187.67  116.78
  -2   7   3  153.05   78.86
   2   8   3  906.15  307.12
  -2  -8  -3  460.37  310.77
  -2  -8   3  837.04  310.27
   2   8  -3 1378.82  310.45
   2  -8  -3  677.98  310.93
  -2   8   3  725.55  205.62
  -2   8  -3  462.25  205.05
  -2  -9  -3  843.25  634.19
  -2  -9   3 1715.40  633.98
   2   9  -3 1623.79  633.79
   2  -9  -3 1870.50  634.74
  -2   9   3 1430.45  415.80
  -2   9  -3 1220.71  415.68
  -2 -10   3  389.19  227.47
   2  10  -3  818.27  227.68
   2 -10  -3  545.75  228.20
  -2  10   3  369.89  151.43
  -2  10  -3  331.96  151.92
   2  11  -3   22.28   11.10
   2 -11  -3   14.54    7.54
  -2  11   3    8.17   13.64
  -2  11  -3    4.66   16.34
   2  12  -3   17.34   10.80
   2 -12  -3   12.09    9.01
  -2  12   3   15.42   13.79
  -2  12  -3    2.93   16.98
   2  13  -3  132.63   42.72
   2 -13  -3   98.53   42.97
  -2  13   3   48.22   31.79
   2  14  -3   90.83   52.07
   2 -14  -3  152.35   53.59
  -2  14   3   69.43   38.74
   2  15  -3  382.89  114.16
   2 -15  -3  248.80  114.57
  -2  15   3  120.54   78.96
   2  16  -3   13.55   11.87
   2 -16  -3   14.19    7.56
  -2  16   3   11.89   23.70
   2  17  -3  146.42   60.58
   2 -17  -3  146.29   60.59
  -2  17   3  132.08   53.03
   2  18  -3   67.82   28.38
   2 -18  -3   67.35   27.66
  -2  18   3   60.50   43.66
   2  19  -3    9.04   10.17
   2 -19  -3   14.15    9.19
  -2  19   3    3.35   43.79
   2  20  -3  465.56  196.03
   2 -20  -3  458.52  195.58
   2  21  -3  517.63  205.73
   2 -21  -3  501.71  205.43
  -2  21   3  248.98  141.97
   2  22  -3  152.93   58.46
   2 -22  -3  139.13   57.21
  -2  22   3   68.31   50.40
   2  23  -3    4.57   18.32
   2 -23  -3    2.84   15.78
   3   0   3 5245.72 1518.47
  -3   0  -3 2611.92 1519.05
   3   0  -3 3584.88 1519.06
   3   0  -3 4053.92 1515.71
   3   1   3 2552.74  775.77
  -3  -1  -3 1316.64  776.62
  -3  -1   3 1634.02  776.59
   3   1  -3 2504.94  776.04
   3  -1  -3 1860.64  776.54
   3   2   3 1646.15  458.79
  -3  -2  -3  646.81  459.72
  -3  -2   3 1034.59  459.70
   3   2  -3 1573.43  459.18
   3  -2  -3 1124.92  459.66
  -3  -3  -3  148.93   83.51
  -3  -3   3  225.43   83.51
   3   3  -3  158.87   82.91
   3  -3  -3  249.23   83.52
   3  -3   3  246.67   80.77
   3   4   3    7.47   11.64
  -3  -4  -3    5.53    9.44
  -3  -4   3   36.05   10.27
   3   4  -3   43.27   11.30
  -3   4  -3    5.69   10.21
   3   5   3   94.34   31.93
  -3  -5  -3   60.19   33.70
  -3  -5   3   78.93   33.73
   3   5  -3   95.46   33.88
   3  -5  -3   85.30   33.80
  -3   5   3   56.79   25.19
  -3   5  -3   59.56   26.79
   3  -5   3  119.95   33.20
   3   6   3  244.10   59.87
  -3  -6   3  115.17   59.39
   3   6  -3  170.27   59.39
   3  -6  -3  139.22   59.42
  -3   6   3  134.81   43.27
  -3   6  -3   98.26   42.43
  -3  -7  -3  307.10  153.98
  -3  -7   3  275.13  153.91
   3   7  -3  548.82  153.81
   3  -7  -3  415.38  153.98
  -3   7   3  451.27  104.68
  -3   7  -3  234.16  102.96
   3  -7   3  319.36  149.09
   3   8   3   19.50   17.53
  -3  -8  -3   -0.63    4.16
  -3  -8   3   -0.19    4.41
   3   8  -3    5.55    7.12
   3  -8  -3    1.10    6.31
  -3   8   3    0.69    9.10
  -3   8  -3    4.01    9.10
   3   9   3  400.38  195.05
  -3  -9  -3  317.81  199.54
  -3  -9   3  391.51  199.27
   3   9  -3  631.82  199.22
   3  -9  -3  673.54  199.78
  -3   9   3  379.11  133.10
  -3   9  -3  225.12  132.51
  -3 -10   3   29.82   16.84
   3  10  -3   57.15   17.62
   3 -10  -3   48.44   17.52
   3 -10  -3   26.03   22.43
  -3  10   3   47.03   23.08
  -3  10  -3   11.35   17.52
   3  11  -3   51.35   23.76
   3 -11  -3   69.91   24.12
  -3  11  -3   13.54   21.87
   3  12  -3   36.03   16.36
   3 -12  -3   44.82   16.68
  -3  12   3   20.17   18.63
  -3  12  -3    7.56   18.20
   3  13  -3   11.54    9.82
   3 -13  -3    6.97   10.80
   3  14  -3    2.10    9.20
   3 -14  -3    7.53   10.45
  -3  14   3    0.13   12.58
   3  15  -3  116.06   51.44
   3 -15  -3  138.14   51.69
  -3  15   3   65.67   39.03
   3  16  -3   60.95   25.94
   3 -16  -3   68.03   25.87
  -3  16   3   19.38   22.37
   3  17  -3   36.56   15.85
   3 -17  -3   29.33   14.95
  -3  17   3    9.98   17.29
   3  18  -3  160.61   71.41
   3 -18  -3  193.83   71.21
  -3  18   3  101.15   56.84
   3  19  -3  139.06   59.21
   3 -19  -3  146.53   58.77
  -3  19   3  109.04   54.95
   3  20  -3  151.27   63.69
   3 -20  -3  150.47   62.80
   3  21  -3   65.32   27.65
  -3  21   3   32.52   46.51
   3  22  -3   10.68   17.19
   3 -22  -3    5.32    7.93
  -3  22   3   -0.18   38.35
   3  23  -3   33.85   27.87
   3 -23  -3   55.34   23.10
   4   0   3   25.67   11.18
  -4   0  -3    5.36    5.70
   4   0  -3   13.90   18.41
   4   1   3   47.78   26.14
  -4  -1  -3   27.60   26.01
  -4  -1   3   31.13   26.09
   4  -1  -3  155.10   26.69
   4  -1  -3   58.16   26.23
   4  -1   3   45.19   25.82
   4  -1   3   73.89   26.45
  -4  -2  -3 1195.68  781.98
  -4  -2   3 1690.50  782.17
   4   2  -3 3059.13  781.63
   4  -2  -3 1623.80  782.13
   4  -2  -3 2615.85  778.55
   4  -2   3 1926.78  781.95
   4  -2   3 3343.73  778.46
   4   3   3 1570.43  469.67
  -4  -3   3  955.78  471.64
   4   3  -3 1667.16  471.03
   4  -3  -3  994.53  471.69
   4  -3  -3 1018.18  467.83
   4  -3   3  992.94  471.59
   4  -3   3 1369.42  468.04
   4   4   3  408.58  178.96
  -4  -4   3  413.67  182.85
   4   4  -3  609.87  182.34
   4  -4  -3  346.59  182.89
   4  -4  -3  593.15  179.89
   4  -4   3  439.53  179.34
   4   5   3  544.25  240.47
  -4  -5   3  507.33  244.21
   4   5  -3  901.59  243.82
   4  -5  -3  487.96  244.34
  -4   5  -3  255.37  160.89
   4  -5   3  695.77  243.67
   4   6   3  419.36  102.07
  -4  -6   3  164.21  102.50
   4   6  -3  371.59  102.45
   4  -6  -3  207.75  102.75
   4  -6  -3  259.89  100.01
  -4   6   3  174.66   69.80
  -4   6  -3  140.40   70.17
   4  -6   3  324.57  101.84
   4  -6   3  193.02   97.89
   4   7   3  394.20  108.42
  -4  -7   3  238.68  111.10
   4   7  -3  152.06  110.42
   4  -7  -3  294.92  111.29
   4  -7  -3  477.95  109.68
  -4   7   3  314.99   76.26
  -4   7  -3  254.32   76.68
   4   8   3  183.95   54.92
  -4  -8   3   87.54   56.65
   4   8  -3  189.39   56.81
   4  -8  -3  144.07   56.94
   4  -8  -3  176.75   56.28
  -4   8  -3   82.70   41.42
  -4  -9   3   73.68   48.69
   4   9  -3  189.45   49.05
   4  -9  -3  122.17   49.01
   4  -9  -3  171.02   49.26
  -4   9   3  105.11   36.79
  -4   9  -3   47.18   35.51
   4  10  -3   36.40   14.05
   4 -10  -3   31.50   13.15
  -4  10  -3    9.49   14.26
   4  11  -3   29.34   15.22
   4 -11  -3   32.59   12.87
  -4  11   3   16.70   19.91
   4  12  -3   22.02   12.57
   4 -12  -3   19.06   11.06
  -4  12   3   11.20   22.67
   4  13  -3  214.48   70.46
   4 -13  -3  142.70   70.20
  -4  13   3  108.00   52.68
   4  14  -3   62.45   23.05
   4 -14  -3   47.61   22.26
  -4  14   3   26.21   20.89
   4  15  -3   47.93   27.56
   4 -15  -3   80.11   27.51
  -4  15   3   46.78   25.95
   4  16  -3    1.16   11.97
   4 -16  -3   -2.48    9.61
  -4  16   3    9.88   15.92
   4  17  -3   63.22   31.47
   4 -17  -3   88.60   31.05
  -4  17   3   31.38   27.75
   4  18  -3    3.31   13.82
   4 -18  -3    5.59   13.26
  -4  18   3   -3.16   14.61
   4  19  -3  238.87  123.54
   4 -19  -3  444.17  123.97
  -4  19   3  103.91   85.67
   4  20  -3   -0.52   15.22
   4 -20  -3    3.11   12.13
  -4  20   3    3.38   26.84
   4  21  -3   -9.84   17.29
   4 -21  -3    0.84    8.98
  -4  21   3   12.20   40.95
   4  22  -3   37.51   22.70
  -4  22   3   34.97   52.28
   4 -23  -3  362.04  153.59
   5   0   3  359.47  120.76
  -5   0  -3  247.29  121.48
   5   0  -3  270.56  121.58
   5   0  -3  494.17  118.96
   5   1   3  209.07  102.14
  -5  -1  -3  162.00  103.15
  -5  -1   3  230.28  103.21
   5   1  -3  394.81  102.79
   5  -1  -3  389.43  100.86
   5  -1   3  252.77  103.37
   5  -1   3  334.34  100.61
   5   2   3  142.32   38.26
  -5  -2  -3   49.49   38.42
  -5  -2   3   79.52   38.75
   5   2  -3  174.58   39.15
   5  -2  -3  161.19   36.61
   5  -2   3  117.36   36.78
   5   3   3   19.61   13.81
  -5  -3  -3    6.48   10.11
  -5  -3   3   21.83   10.67
   5   3  -3   94.43   14.50
   5  -3  -3   16.83   10.86
   5  -3  -3   15.10   13.80
   5  -3   3   27.62   10.43
   5  -3   3   18.37   14.98
   5   4   3 1844.42  757.69
  -5  -4  -3  902.85  761.78
  -5  -4   3 1518.11  761.97
   5   4  -3 3428.96  761.53
   5  -4  -3 1589.57  761.90
   5  -4  -3 2868.17  758.05
   5  -4   3 2222.32  761.77
   5  -4   3 2479.20  757.99
  -5  -5  -3  643.11  538.44
  -5  -5   3 1034.35  538.61
   5   5  -3 2548.79  538.32
   5  -5  -3 1251.80  538.61
   5  -5  -3 2064.95  534.92
   5  -5   3 1386.09  538.52
   5   6   3  979.59  278.79
  -5  -6  -3  203.66  281.07
  -5  -6   3  655.13  281.32
   5   6  -3 1360.60  281.06
   5  -6  -3  632.48  281.28
   5  -6  -3 1515.10  279.32
   5   7   3    0.26   20.54
  -5  -7  -3    0.67    4.93
  -5  -7   3    4.00    4.62
   5   7  -3    8.82   10.59
   5  -7  -3    9.05    5.73
   5  -7  -3    7.69   21.60
  -5   7   3    5.48   11.62
  -5   7  -3    5.06    9.59
   5  -7   3    6.67    5.22
   5   8   3   58.29   19.86
  -5  -8  -3   10.66   17.03
  -5  -8   3   34.15   16.97
   5   8  -3   86.52   18.92
   5  -8  -3   51.73   17.55
   5  -8  -3   91.24   28.60
  -5   8   3   41.13   18.30
  -5   8  -3   32.76   18.71
   5   9   3    4.29   16.67
   5   9  -3   -2.50    7.54
   5  -9  -3   -2.04    5.94
  -5   9   3   -1.99   15.50
  -5   9  -3    4.55   14.16
   5  10  -3   45.27   15.82
   5 -10  -3   22.05   11.06
  -5  10   3   18.17   15.20
  -5  10  -3   -0.43   14.31
   5  11   3   73.30   53.71
  -5 -11  -3   31.34   56.99
   5  11  -3  299.97   58.20
   5 -11  -3  162.41   57.58
  -5 -12  -3   -0.32    5.93
   5  12  -3    0.06   13.72
   5 -12  -3    1.26    7.27
  -5  12   3   -1.09   15.86
   5  13  -3  138.91   42.68
   5 -13  -3   87.21   41.70
  -5  13   3   57.94   35.35
   5  14  -3   33.43   16.20
   5 -14  -3   19.53   10.69
   5  15  -3  118.62   41.96
   5 -15  -3   95.67   41.03
  -5  15   3   47.64   34.86
   5  16  -3   -3.81   14.24
   5 -16  -3    5.79    9.12
  -5  16   3   -7.74   23.58
   5  17  -3   80.87   29.61
   5 -17  -3   62.26   28.17
  -5  17   3   39.52   28.08
   5  18  -3    8.23   14.60
   5 -18  -3   17.15   10.50
  -5  18   3   -3.57   18.63
   5  19  -3   -2.09   13.55
   5 -19  -3    6.05    9.89
  -5  19   3    1.95   15.52
   5  20  -3    5.89   13.38
   5 -20  -3    9.90   10.12
  -5  20   3   10.07   17.32
   5  21  -3   21.81   18.43
  -5  21   3   31.43   34.46
   5  22  -3   32.52   26.50
   5 -22  -3   49.67   20.20
   6   0   3   13.28   16.51
  -6   0  -3    2.78    5.83
   6   0  -3    4.30    4.09
   6   0  -3   69.92   17.47
  -6  -1  -3  153.64   86.11
  -6  -1   3  162.43   86.08
   6   1  -3  278.61   85.53
   6  -1  -3  211.48   85.99
   6  -1  -3  470.18   84.86
   6  -1   3  221.51   86.02
   6   2   3  717.98  191.57
  -6  -2  -3  276.64  194.12
  -6  -2   3  460.47  194.13
   6  -2  -3  583.96  194.18
   6  -2   3  435.89  194.15
   6  -2   3  883.01  191.55
   6   3   3  602.30  204.15
  -6  -3   3  416.36  207.69
   6  -3  -3  545.91  207.76
   6  -3  -3  472.02  204.21
  -6  -4  -3  261.86  222.67
  -6  -4   3  373.85  222.86
   6   4  -3 1052.40  222.50
   6  -4  -3  569.30  222.89
   6  -4  -3  695.52  219.73
   6  -4   3  584.34  223.00
   6  -4   3 1014.99  219.79
  -6  -5  -3   56.14   59.10
  -6  -5   3  121.15   59.55
   6   5  -3  189.05   59.45
   6  -5  -3  211.33   59.56
   6  -5  -3  243.27   57.41
   6   6   3   42.22   16.33
  -6  -6  -3    5.96   10.16
  -6  -6   3   13.42   10.36
   6   6  -3   50.73   14.55
   6  -6  -3   26.57   10.29
   6  -6  -3   28.19   15.57
   6  -6   3   38.69   10.54
   6   7   3  529.87  144.69
  -6  -7  -3   98.69  146.17
  -6  -7   3  172.64  146.56
   6   7  -3  744.00  146.63
   6  -7  -3  433.37  146.69
   6  -7  -3  524.98  143.76
   6  -7   3  390.88  146.32
   6  -7   3  613.48  143.10
   6   8  -3   75.46   22.68
   6  -8  -3   39.53   19.51
  -6   8   3   38.35   18.02
  -6   8  -3   24.88   18.14
   6   9   3    4.57   19.44
   6   9  -3    6.78   11.61
   6  -9  -3    1.86    5.29
  -6   9   3    0.42   13.70
  -6   9  -3   -5.10   13.45
  -6 -10  -3    8.26   15.54
   6  10  -3   55.63   18.75
   6 -10  -3   52.54   16.47
  -6  10   3   53.37   21.80
   6  11   3   69.47   34.30
   6  11  -3  114.21   37.23
   6 -11  -3   79.17   36.40
  -6  11   3   65.13   31.91
   6  12   3  128.76  120.01
   6  12  -3  371.17  123.69
   6 -12  -3  297.26  123.99
  -6  12   3  143.07   83.76
   6  13  -3  693.47  261.31
   6 -13  -3  624.19  261.97
  -6  13   3  312.56  173.27
   6  14  -3   38.15   15.36
   6 -14  -3   22.11   11.50
  -6  14   3   23.46   23.18
   6  15  -3    6.68   12.41
   6 -15  -3    3.53    5.91
   6  16  -3  544.85  222.85
   6 -16  -3  532.51  223.25
  -6  16   3  415.37  150.89
   6  17  -3  474.50  200.95
   6 -17  -3  507.50  201.60
  -6  17   3  276.19  135.91
   6  18  -3  257.78  113.77
   6 -18  -3  279.17  114.25
  -6  18   3  256.54   82.12
   6  19  -3   15.42   20.09
   6 -19  -3   37.52   14.07
  -6  19   3    7.48   18.46
   6  20  -3   11.05   15.42
   6 -20  -3   10.38   11.36
  -6  20   3   11.63   20.29
   6  21  -3   13.17   20.39
   6 -21  -3   14.08    9.82
  -6  21   3    1.36   18.02
   6  22  -3   34.38   32.80
   6 -22  -3   63.26   25.92
   7   0   3   43.91   15.53
  -7   0  -3   15.55   10.01
   7   0  -3   26.31    9.13
   7   0  -3   37.03   15.70
   7   1   3  103.68   24.23
  -7  -1  -3   38.34   17.66
  -7  -1   3   28.12   17.88
   7   1  -3  103.57   21.35
   7   2   3    3.13   20.82
  -7  -2  -3   -0.47    4.42
  -7  -2   3    0.31    7.29
   7   2  -3    3.73   13.73
   7  -2   3   -4.77   19.83
  -7  -3   3  147.74   84.96
   7   3  -3  251.01   84.31
   7  -3  -3  203.95   82.39
   7  -3   3  212.20   84.83
   7  -3   3  373.39   83.30
   7   4   3   54.93   23.95
  -7  -4   3   44.14   24.22
   7   4  -3   72.07   23.94
   7  -4  -3   50.13   21.33
   7  -4   3   60.10   23.06
   7   5   3  235.98   70.24
  -7  -5  -3   61.24   71.25
  -7  -5   3  173.81   72.03
   7   5  -3  220.93   71.59
   7  -5  -3  189.12   71.98
   7  -5  -3  191.69   69.17
   7  -5   3  276.66   70.09
   7   6   3   66.75   18.91
  -7  -6  -3    7.46   11.74
  -7  -6   3   19.13   12.39
   7  -6  -3   39.12   12.29
   7  -6  -3   48.09   15.07
   7  -6   3  105.41   21.64
   7   7   3  147.25   35.06
  -7  -7  -3   21.06   31.12
   7   7  -3   88.62   32.24
   7  -7  -3   98.30   31.68
   7   8   3  167.11   54.20
  -7  -8  -3   37.73   55.77
   7   8  -3  232.94   57.16
   7  -8  -3  172.50   56.58
  -7   8  -3   72.46   40.86
   7   9   3   58.41   26.16
  -7  -9  -3    3.83   11.11
   7   9  -3   55.85   17.39
   7  -9  -3   26.94   11.44
  -7 -10  -3  244.41  351.45
   7  10  -3  900.66  351.21
   7 -10  -3 1139.23  352.31
  -7  10   3 1168.96  233.46
   7  11   3  386.25  195.60
  -7 -11  -3   80.96  199.09
   7  11  -3 1015.50  199.95
   7 -11  -3  487.91  199.98
  -7  11   3  696.78  137.13
   7  12   3  407.49  284.66
   7  12  -3 1358.20  288.93
   7 -12  -3  469.60  289.08
  -7  12   3  486.30  191.86
   7 -13  -3    5.61   19.65
  -7  13   3    0.74   22.78
   7  14  -3  187.30   58.28
   7 -14  -3  128.41   57.81
  -7  14   3   82.95   44.40
   7  15   3    2.56   27.95
   7  15  -3   -1.12   15.18
   7 -15  -3    1.03    5.99
  -7  15   3   -5.22   22.25
   7  16  -3   57.50   20.71
   7 -16  -3   31.17   15.80
   7  17  -3  220.48   91.27
   7 -17  -3  219.04   91.52
  -7  17   3  194.05   68.63
   7  18  -3  329.85  112.34
   7 -18  -3  257.94  112.47
  -7  18   3  176.28   79.61
   7  19  -3  154.52   90.15
   7 -19  -3  249.45   90.76
  -7  19   3  142.84   67.63
   7  20  -3  282.50  117.64
   7 -20  -3  307.68  117.48
  -7  20   3   98.21   81.03
   7  21  -3   21.26   25.16
   7 -21  -3   51.38   20.50
  -7  21   3   15.55   24.63
   7 -22  -3    6.15   12.87
   8   0   3   62.95   18.50
  -8   0  -3    0.08    4.02
   8   0  -3    1.09    3.48
   8   0  -3   10.44   21.41
   8   1   3  120.48   35.66
  -8  -1   3   49.77   35.40
   8   1  -3   98.80   37.01
   8  -1  -3   95.57   35.32
   8  -1  -3  164.49   38.17
   8  -1   3   92.56   35.27
   8   2   3    8.43   16.41
  -8  -2  -3    0.93    5.17
  -8  -2   3    1.53    7.21
   8   2  -3   34.58   16.62
   8  -2  -3    2.43    4.81
   8  -2  -3    5.36   16.89
   8  -2   3    1.68    4.66
   8  -2   3    6.48   20.46
   8   3   3   11.00   14.80
  -8  -3  -3    2.29    5.97
  -8  -3   3    4.41    8.32
   8   3  -3   30.28   15.13
   8  -3  -3   21.11    6.51
   8  -3  -3   40.02   18.31
   8   4   3   10.67   16.58
  -8  -4  -3    1.80    5.11
   8   4  -3   22.39   14.61
   8  -4  -3    7.55    4.65
   8  -4  -3    8.62   17.10
   8  -4   3   12.22    5.84
   8   5   3   12.02   19.11
  -8  -5  -3   -0.72    5.33
   8   5  -3   -0.28   12.97
   8  -5  -3    0.53    4.25
   8  -5   3    2.46    6.24
   8   6   3   55.04   20.18
   8   6   3   78.38   24.52
  -8  -6  -3   11.14   20.55
   8   6  -3   63.70   22.68
   8  -6  -3   63.30   21.15
   8  -6   3   58.40   21.32
   8   7   3  182.11   41.54
  -8  -7  -3   31.23   53.78
   8   7  -3  163.78   54.46
   8  -7  -3  130.23   54.26
   8  -7   3  155.95   54.43
   8  -7   3  231.94   54.27
   8   8   3  277.00   87.53
  -8  -8  -3   46.96   89.60
   8   8  -3  359.51   90.37
   8  -8  -3  260.63   90.47
   8   9   3  336.21  111.04
   8   9   3  526.59  163.05
   8   9  -3  525.24  162.51
   8  -9  -3  336.65  163.01
  -8   9   3  291.50  109.85
   8  10   3   17.70   23.14
   8  10  -3   15.93   14.77
   8 -10  -3   22.10    9.01
  -8  10   3   13.35   13.56
   8  11   3 1279.36  465.51
   8  11   3 1052.70  704.78
   8  11  -3 1972.32  708.82
   8 -11  -3 1696.99  709.91
  -8  11   3 1468.40  465.44
   8  12   3  341.76  130.94
   8  12   3  255.27  188.19
   8  12  -3  559.70  192.11
   8 -12  -3  440.01  192.78
  -8  12   3  603.94  134.03
   8  13   3   -1.50   25.21
   8  13  -3  111.09   18.66
   8 -13  -3    4.95   11.28
  -8  13   3    1.87   26.04
   8  14   3  125.22   69.35
   8  14   3   73.94   92.73
   8  14  -3  231.99   95.08
   8 -14  -3  259.41   95.67
   8  15   3    3.75   34.86
   8  15  -3   99.03   19.47
   8 -15  -3    8.64   11.67
  -8  15   3   12.16   26.68
   8  16  -3  233.41   91.76
   8 -16  -3  211.44   92.14
  -8  16   3  236.28   68.37
   8  17  -3    6.46   14.93
   8 -17  -3    3.11    5.92
  -8  17   3    2.87   24.22
   8  18  -3   82.63   46.71
   8 -18  -3  120.72   46.08
  -8  18   3   97.85   40.68
   8  19  -3  220.50  178.62
   8 -19  -3  507.26  180.04
  -8  19   3  348.73  123.26
   8  20  -3   -4.90   24.50
   8 -20  -3    1.03   14.72
  -8  20   3    1.26   22.21
   8  21  -3   12.90   32.53
   8 -21  -3    9.61   13.57
   9   0   3   90.13   33.41
   9   0  -3   83.66   34.49
   9   0  -3   81.21   35.11
   9   1   3  184.62   81.93
   9   1  -3  246.07   81.36
   9  -1  -3  178.74   83.14
   9  -1   3  212.14   83.31
   9   2   3   81.65   40.41
   9   2  -3  207.70   40.00
   9  -2  -3   84.44   37.90
   9  -2  -3   99.23   38.72
   9  -2   3   83.88   38.11
   9  -2   3   85.75   37.77
   9   3   3  445.35  174.75
   9   3  -3  432.78  174.57
   9  -3  -3  434.84  176.94
   9  -3   3  359.95  177.13
   9  -3   3  679.76  175.28
   9   4   3  199.90   69.09
   9   4  -3  151.05   67.53
   9  -4  -3  190.74   70.02
   9  -4   3  130.98   70.17
   9  -4   3  313.26   71.61
   9   5   3   20.26   19.44
   9   5  -3   11.85   10.78
   9  -5  -3   22.34    8.92
   9  -5   3   28.81   23.45
   9   6   3  109.59   46.52
   9   6  -3  134.65   46.94
   9  -6  -3  103.32   46.91
   9  -6   3  141.87   47.71
   9   7   3   37.19   22.81
   9   7   3   59.32   24.73
   9   7  -3   76.56   25.87
   9  -7  -3   54.73   21.29
   9  -7   3   43.17   21.61
   9   8   3   62.24   30.54
   9   8   3   79.99   36.63
   9   8  -3  127.10   34.10
   9  -8  -3   81.82   31.62
   9  -8   3   59.17   31.61
   9   9   3  193.21   84.16
   9   9  -3  345.29  119.96
   9  -9  -3  275.48  120.59
   9  10   3    5.36   24.30
   9  10   3   18.87   25.32
   9  10  -3   14.20   15.11
   9 -10  -3   13.91    7.09
  -9  10   3    7.25   13.38
   9  11   3  122.38   57.24
   9  11   3  104.16   67.95
   9  11  -3  200.39   70.05
   9 -11  -3  164.14   70.05
  -9  11   3  178.73   52.13
   9  12   3  169.95   98.95
   9  12  -3  219.80  101.62
   9 -12  -3  248.01  102.33
  -9  12   3  337.37   77.47
   9  13  -3  151.15   68.40
   9 -13  -3  160.60   68.68
  -9  13   3  230.26   58.22
   9  14   3  444.17  227.73
   9  14  -3  718.17  340.76
   9 -14  -3  877.52  342.09
  -9  14   3  815.59  227.55
   9  15   3    2.79   21.21
   9  15  -3   19.40   14.94
   9 -15  -3    5.39    6.26
  -9  15   3   -5.78   23.34
   9  16   3    1.58   83.72
   9  16  -3  320.34  119.32
   9 -16  -3  306.69  119.97
  -9  16   3  336.03   85.26
   9  17  -3  367.59  177.27
   9 -17  -3  448.35  178.47
  -9  17   3  318.58  122.57
   9  18  -3   31.48   22.87
   9 -18  -3   50.71   18.98
  -9  18   3   14.99   28.89
   9  19  -3   33.65   25.41
   9 -19  -3   27.40   12.43
  -9  19   3   29.86   30.08
   9  20  -3   24.53   33.74
   9 -20  -3   25.28   11.97
  -9  20   3    7.02   24.64
   9 -21  -3   72.61   32.51
  10   0   3   11.38   17.61
  10   0  -3   -0.12    5.87
  10   1   3   83.16   32.59
  10   1  -3   75.85   32.52
  10  -1  -3   70.18   30.46
  10  -1   3   77.34   30.91
  10   2   3   21.38   20.32
  10   2  -3   39.82   22.43
  10  -2  -3   28.10   13.01
  10  -2   3   37.23   14.84
  10  -2   3   34.29   24.09
  10   3   3   80.22   35.28
  10   3  -3   70.22   30.95
  10  -3  -3   84.13   32.71
  10  -3   3   79.00   33.32
  10   4  -3  429.00  176.60
  10  -4  -3  492.62  180.11
  10  -4   3  357.12  180.28
  10  -4   3  521.02  178.00
  10   5   3  515.66  216.30
  10   5   3  824.69  325.30
  10   5  -3  769.83  324.43
  10  -5  -3  928.66  328.03
  10  -5   3  659.22  328.32
  10  -5   3 1112.38  325.87
  10   6   3  639.87  250.59
  10   6   3 1015.40  377.40
  10   6  -3 1017.18  377.20
  10  -6  -3 1145.60  380.62
  10  -6   3  738.44  380.90
  10  -6   3  950.96  378.35
  10   7   3   62.91   30.42
  10   7   3   94.75   37.63
  10   7  -3  100.24   35.17
  10  -7  -3   92.38   36.80
  10   8   3   73.04   34.02
  10   8   3  186.40   48.95
  10   8  -3  118.84   39.83
  10  -8  -3  111.02   41.74
  10  -8   3   82.09   41.96
  10   9  -3   32.20   12.42
  10  -9  -3   36.41   10.57
  10  -9   3   15.62   11.51
  10  -9   3   16.74   13.95
  10  10   3   79.22   61.59
  10  10  -3  203.73   64.88
  10 -10  -3  153.18   64.54
 -10  10   3  151.02   46.93
  10  11   3   19.39   28.15
  10  11   3   38.38   24.67
  10  11  -3   78.31   25.71
  10 -11  -3   53.74   22.45
 -10  11   3   59.15   23.75
  10  12   3   13.19   26.37
  10  12   3   20.08   28.29
  10  12  -3   23.67   16.19
  10 -12  -3   16.40    8.21
 -10  12   3   18.62   22.20
  10  13   3  207.28  123.05
  10  13  -3  499.57  175.01
  10 -13  -3  417.56  176.36
 -10  13   3  405.00  122.09
  10  14  -3   42.18   22.65
  10 -14  -3   30.97   13.46
 -10  14   3   23.25   24.83
  10  15  -3   67.02   30.10
  10 -15  -3   57.83   23.48
 -10  15   3   30.47   26.18
  10  16   3   -0.76   32.65
  10  16  -3   32.22   19.37
  10 -16  -3   33.66   12.85
 -10  16   3   26.30   22.78
  10  17   3   -4.84   37.40
  10  17  -3   93.56   35.51
  10 -17  -3   88.07   33.52
 -10  17   3   91.36   35.77
  10  18  -3   15.40   21.65
  10 -18  -3   12.33    7.14
 -10  18   3   10.21   25.58
  10  19  -3   45.68   31.79
  10 -19  -3   78.75   29.93
 -10  19   3   34.83   32.98
  10 -20  -3   20.64   10.91
  11   0   3  505.26  212.08
  11   1  -3   85.04   35.65
  11  -1   3   80.94   33.83
  11   2   3   10.30   17.94
  11   2  -3   33.18   20.03
  11  -2  -3   26.17   10.75
  11   3  -3  823.76  517.67
  11  -3   3 1354.62  520.40
  11   4   3    1.93   14.84
  11   4   3   21.07   20.90
  11   4  -3   36.87   23.14
  11  -4  -3   24.90   10.11
  11  -4   3   23.54   10.76
  11   5   3  350.82  176.30
  11   5  -3  374.91  176.20
  11  -5  -3  505.01  179.17
  11  -5   3  377.89  179.23
  11   6   3   85.44   47.80
  11   6  -3   82.03   43.27
  11  -6  -3  123.04   45.85
  11   7   3  125.35   64.82
  11   7   3  265.63   89.91
  11   7  -3  280.21   88.51
  11  -7  -3  313.81   91.38
  11  -7   3  163.65   91.73
  11   8   3  514.70  224.06
  11   8  -3  519.39  222.60
  11  -8  -3  540.71  226.53
  11   9   3  125.31   85.82
  11   9   3  422.21  125.73
  11   9  -3  303.91  120.59
  11  -9  -3  311.80  124.23
  11  10   3    1.94   22.55
  11  10   3   10.28   26.45
  11  10  -3   10.47   16.71
  11 -10  -3   20.37    7.83
 -11  10   3   16.76   15.39
  11  11   3   16.12   22.59
  11  11   3   34.85   29.12
  11  11  -3   34.95   16.54
  11 -11  -3   42.00   15.43
 -11  11   3   28.36   18.90
  11  12   3    9.37   28.41
  11  12  -3    5.11   13.92
  11 -12  -3    4.06    5.63
 -11  12   3   -0.75   19.07
  11  13   3    8.06   27.81
  11 -13  -3    9.87    6.29
 -11  13   3   10.68   25.25
  11  14   3   -0.39   36.69
  11  14  -3    7.97   13.67
  11 -14  -3   18.58    8.18
 -11  14   3   26.18   32.45
  11  15   3   -8.99   42.69
  11  15   3   -7.10   29.09
  11 -15  -3   21.94    8.36
 -11  15   3   14.38   21.29
  11  16  -3   -2.37   18.58
  11 -16  -3    6.22    6.07
 -11  16   3    5.68   19.69
  11  17  -3    4.87   14.20
  11 -17  -3   19.03    8.40
 -11  17   3   12.08   23.26
  11  18  -3    4.37   24.21
  11 -18  -3    3.46    7.91
 -11  18   3   10.79   25.29
  11 -19  -3   16.75    9.75
  12   0   3  144.52   24.61
  12   0  -3   12.00   14.95
  12   1   3 2298.82  810.24
  12   1  -3 1765.26  810.30
  12  -1  -3 1952.24  813.43
  12  -1   3 1817.88  813.39
  12   2   3   49.06   21.92
  12   2  -3   91.65   25.41
  12  -2  -3   33.98   17.60
  12  -2   3   34.58   18.58
  12   3   3   79.08   33.17
  12   3  -3   76.48   32.24
  12  -3  -3   77.38   29.67
  12  -3   3   65.29   29.96
  12   4   3    5.62   17.41
  12   4   3   -5.02   26.17
  12   4  -3    1.29   18.89
  12   5  -3  355.41  154.15
  12  -5  -3  381.33  155.70
  12  -5   3  360.69  155.94
  12   6  -3   89.19   35.85
  12  -6  -3   84.65   32.77
  12  -6   3   73.64   33.51
  12   7   3   20.51   22.76
  12   7   3   60.16   35.34
  12   7  -3   47.71   23.61
  12  -7  -3   40.15   13.80
  12  -7   3   23.11   14.55
  12   8   3    4.33   19.62
  12   8  -3    1.76   18.93
  12  -8  -3    6.55    6.64
  12  -8   3    3.21    7.81
  12   9   3    1.49   29.76
  12   9  -3    1.12   20.21
  12  -9  -3    0.74    6.43
  12  10   3   -1.68   22.79
  12  10   3   -7.50   35.59
  12  10  -3   -1.57   14.78
  12 -10  -3    3.88    5.95
  12  11   3   72.33   25.71
  12  11   3   -1.36   28.20
  12  11  -3   16.54   14.30
  12 -11  -3   10.50    7.62
 -12  11   3    4.33   17.36
  12  12   3    9.12   27.05
  12  12   3   -2.43   30.40
  12  12  -3    1.42   15.78
  12 -12  -3    0.75    6.00
 -12  12   3   -3.15   17.35
  12  13   3   -7.57   39.47
  12  13   3    6.22   29.88
  12  13  -3   45.73   18.90
  12 -13  -3   48.62   16.96
 -12  13   3   46.83   27.66
  12  14   3    7.64   42.70
  12  14  -3   20.56   15.54
  12 -14  -3   28.28   11.43
 -12  14   3   33.79   33.81
  12  15   3    4.67   51.60
  12  15   3   -0.83   34.83
  12  15  -3   52.94   24.84
  12 -15  -3   77.28   25.83
 -12  15   3   36.20   29.62
  12  16  -3   30.16   16.48
  12 -16  -3   23.39   10.26
 -12  16   3   16.36   21.45
  12  17  -3    0.40   21.80
  12 -17  -3   -0.72    7.98
 -12  17   3    1.30   20.40
  12  18  -3    4.95   26.45
  12 -18  -3    2.20    8.18
  13   0   3  690.82  290.39
  13   1   3   32.96   19.71
  13   1  -3   20.12   19.44
  13   2   3   50.47   58.27
  13   2   3  248.36   83.60
  13   2  -3  318.44   82.41
  13   3   3  657.95  256.37
  13   3  -3  726.00  257.15
  13  -3  -3  577.63  259.43
  13   4   3   27.16   28.08
  13   4  -3   30.91   21.27
  13  -4  -3   23.62   11.03
  13  -4   3   28.12   13.48
  13   5   3   15.63   20.19
  13   5   3   26.60   26.30
  13   5  -3   19.19   19.71
  13  -5  -3   25.26    9.66
  13  -5   3   19.30   12.64
  13   6   3   47.41   63.12
  13   6   3  338.85   89.75
  13   6  -3  201.35   84.64
  13  -6  -3  231.44   85.45
  13  -6   3  191.75   85.79
  13   7   3   89.48   43.48
  13   7  -3   91.07   39.00
  13  -7  -3  116.47   37.91
  13  -7   3   67.92   38.23
  13   8   3   53.34   39.92
  13   8   3  176.32   53.97
  13   8  -3  149.73   48.12
  13  -8  -3  196.83   47.34
  13  -8   3   55.42   47.94
  13   9   3    1.79  171.32
  13   9  -3  372.72  173.85
  13  -9  -3  502.97  175.96
  13  10   3   -1.37   29.66
  13  10  -3   16.26   14.56
  13 -10  -3   11.26    6.76
  13  11   3    6.22   22.81
  13  11   3  -16.45   37.39
  13  11  -3   32.43   22.44
  13 -11  -3   19.17    7.66
 -13  11   3   15.84   17.99
  13  12   3   -4.76   34.67
  13  12  -3  122.42   39.56
  13 -12  -3   98.23   36.33
 -13  12   3   87.84   31.90
  13  13   3    6.10   34.07
  13  13  -3    3.11   17.05
  13 -13  -3    0.68    6.01
 -13  13   3   -2.21   21.62
  13 -14  -3   -0.95    6.16
 -13  14   3   -1.79   26.12
  13  15  -3    1.27   24.79
  13 -15  -3    4.79    7.21
 -13  15   3    3.14   28.33
  13  16  -3  -10.98   31.13
  13 -16  -3    2.21    7.62
 -13  16   3   10.90   19.53
  13 -17  -3    6.78    7.99
  14   0   3    1.39   22.94
  14   1   3    1.96   26.52
  14   1  -3    0.48   19.10
  14   2  -3    6.00   18.65
  14   3   3   -1.52   35.39
  14   3  -3    2.44   19.76
  14   4   3  103.87   40.24
  14   4  -3  116.21   35.39
  14  -4  -3   72.39   33.76
  14   5   3  260.96   60.66
  14   5  -3  339.18   59.96
  14  -5  -3  218.65   58.98
  14  -5   3   -1.97   58.25
  14   6   3   99.46   86.97
  14   6   3  604.70  122.09
  14   6  -3  448.25  119.55
  14  -6  -3  500.34  120.77
  14  -6   3   -1.05  119.94
  14   7   3   68.29   74.95
  14   7   3  327.21   98.74
  14   7  -3  299.85   96.50
  14  -7  -3  350.44   97.26
  14  -7   3  109.50   97.43
  14   8   3   -9.26   38.54
  14   8  -3   65.65   24.45
  14  -8  -3   72.97   17.47
  14  -8   3   16.07   18.99
  14   9   3   15.14   32.12
  14   9  -3   65.70   24.29
  14  -9  -3   90.20   17.64
  14  -9   3   12.10   19.95
  14  10   3   -4.97   23.41
  14  10   3   -1.84   39.27
  14  10  -3    2.12   20.40
  14 -10  -3    4.04    7.12
  14  11   3   -2.91   71.51
  14  11  -3  170.23   71.43
  14 -11  -3  205.45   71.78
 -14  11   3  145.82   52.78
  14  12  -3   68.14   33.91
  14 -12  -3   74.79   30.42
 -14  12   3   75.47   28.34
  14  13  -3   51.61   35.59
  14 -13  -3   90.71   33.45
 -14  13   3   46.10   35.41
  14  14  -3    6.02   26.58
  14 -14  -3    1.69    7.41
 -14  14   3    4.35   26.00
  14  15  -3   35.19   28.42
  14 -15  -3   32.27   13.81
 -14  15   3   10.80   22.53
  14 -16  -3   12.20    8.48
  15   0   3    2.72   31.21
  15   0   3  146.98   32.76
  15   1   3   -3.50   20.17
  15   1   3   57.95   29.61
  15   1  -3    2.15   22.72
  15   1  -3   48.33   27.78
  15   2   3   -2.87   29.42
  15   2  -3   10.03   20.04
  15   3   3   13.96   58.49
  15   3   3  358.34   82.00
  15   3  -3  282.24   78.66
  15   4   3   90.06   46.33
  15   4  -3  124.16   47.12
  15   5   3   73.18   30.03
  15   5  -3   66.20   26.74
  15  -5  -3   52.73   23.25
  15   6   3   20.31   31.96
  15   6  -3   17.21   19.01
  15  -6  -3   27.66    9.35
  15  -6   3   -0.56   11.66
  15   7   3   -9.16   40.33
  15   7  -3   80.95   29.94
  15  -7  -3   84.83   28.26
  15   8  -3   10.57   18.54
  15  -8  -3    5.01    7.00
  15   9   3   -1.13   37.44
  15   9  -3   50.78   29.87
  15  -9  -3   88.02   28.75
  15  10   3    5.56   32.54
  15  10  -3   35.04   22.90
  15 -10  -3   41.98   15.25
  15  11   3   -0.24   33.08
  15  11  -3   31.23   22.77
  15 -11  -3   45.91   14.87
 -15  11   3   22.60   20.64
  15  12  -3   55.56   37.55
  15 -12  -3   70.37   26.17
 -15  12   3   36.39   25.44
  15  13  -3  153.84   35.63
  15 -13  -3   40.25   21.26
 -15  13   3   13.81   27.95
  15  14  -3  113.27   92.97
  15 -14  -3  234.50   92.60
  16   0   3   -2.44   31.34
  16   1   3  -10.99   31.27
  16   1  -3   -1.42   30.64
  16   2   3   18.76   27.23
  16   2  -3   20.32   27.60
  16   3   3   11.01   24.14
  16   3  -3    9.42   27.35
  16   4   3   18.58   24.00
  16   4  -3    7.61   23.24
  16   5   3   15.39   29.40
  16   5  -3    8.33   19.85
  16  -5  -3    5.73    5.34
  16   6   3    7.13   41.98
  16   6  -3   13.93   20.77
  16  -6  -3    4.27    6.41
  16  -6   3    0.09    9.68
  16   7   3    3.38   47.94
  16   7  -3  148.21   44.99
  16  -7  -3  116.62   44.58
  16   8   3   -1.60   32.46
  16   8  -3   21.87   20.43
  16  -8  -3   29.76   11.22
  16   9   3    4.04   39.98
  16   9  -3   69.47   33.41
  16  -9  -3   91.02   31.42
  16  10   3   22.40   35.44
  16  10  -3   -3.09   21.45
  16 -10  -3    0.44   10.56
  16  11  -3  129.79   75.62
  16 -11  -3  210.60   78.19
 -16  11   3  147.86   58.91
  16  12  -3  111.15   75.19
  16 -12  -3  197.32   77.59
 -16  12   3  180.96   58.93
  17   0   3    3.17   30.16
  17   1   3    1.44   26.83
  17   1  -3    4.16   30.42
  17   2  -3   -6.45   32.35
  17   3   3   41.04   30.23
  17   3  -3   70.41   34.69
  17   4   3    2.34   26.14
  17   4  -3   35.99   30.39
  17   5   3   11.19   48.85
  17   5  -3  138.42   40.39
  17   6   3    6.61   33.30
  17   6  -3   20.43   30.17
  17  -6  -3    2.60    8.23
  17   7   3    6.06   34.24
  17   7  -3   -4.17   25.91
  17  -7  -3    5.15    9.81
  17   8   3   -4.39   46.48
  17   8  -3   29.71   30.31
  17  -8  -3   90.16   29.85
  17   9  -3    7.71   20.59
  17  -9  -3   27.83   13.98
  17  10  -3   84.51  147.56
  17 -10  -3  418.41  152.74
  18   0   3   11.15   33.89
  18   1  -3   16.25   32.82
  18   2   3  132.63   74.46
  18   2  -3  209.10   73.45
  18   3   3   -2.00   36.31
  18   3  -3   46.40   33.76
  18   4   3    8.42   52.78
  18   4  -3   71.27   34.90
  18   5   3    4.72   61.47
  18   5  -3   15.50   34.20
  18  -5  -3   -0.85   10.51
  18   6  -3   35.79   33.86
  18   7  -3   22.43   33.43
   0   1   4  107.90   47.02
   0   1  -4  115.49   47.37
   0   2   4  308.72  130.58
   0   2  -4  310.27  130.62
   0   3  -4    4.12    7.22
   0   4   4    3.71   12.41
   0   4  -4    6.25    8.11
   0   5   4    1.69   11.77
   0   5  -4   -2.36   11.11
   0   6   4  255.40  206.35
   0   6  -4  599.66  208.16
   0   7  -4    6.49   13.20
   0   8   4   80.47  160.91
   0   8  -4  454.99  165.11
   0   9  -4   -0.18   10.26
   0  10  -4   11.81   10.17
   0  11  -4    0.20   10.22
   0  12  -4    2.69   10.33
   0  13  -4    1.37   10.80
   0  14  -4   17.56   12.28
   0  15  -4    1.46   11.81
   0  16  -4   91.09   38.21
   0  17  -4    1.77   12.21
   0  18  -4   19.07   13.05
   0  19  -4    1.40   13.23
   0  20  -4   66.96   29.32
   1   1  -4  536.82  220.21
   1  -1  -4  499.85  219.87
   1   2   4  747.15  317.17
   1   3   4   29.64   17.93
   1   3  -4   20.21   10.31
   1  -3  -4   15.42    9.83
   1  -3   4   17.89   11.04
   1   4  -4   53.58   23.44
   1  -4  -4   59.26   22.93
   1   5  -4    9.93   10.37
   1  -5  -4   13.37    9.09
   1  -5   4   18.05   14.90
   1  -5   4   -0.02   19.48
   1   6   4  150.14   57.36
   1   6  -4  172.37   58.21
   1  -6   4   87.42   57.88
   1   7  -4  579.21  196.50
   1  -7  -4  420.03  196.52
   1  -7   4  160.58  192.38
   1   8  -4  708.12  276.71
   1  -8  -4  610.52  276.97
   1   9  -4  260.89   89.25
   1  -9  -4  178.49   89.38
   1  10  -4   -0.97   11.22
   1 -10  -4    3.05    9.65
   1  11  -4   47.33   17.30
   1 -11  -4   28.98   15.64
   1  12  -4   53.34   21.52
   1 -12  -4   45.76   20.48
   1  13  -4   22.49   12.96
   1 -13  -4   21.60   10.99
   1  14  -4  126.54   49.93
   1 -14  -4  113.33   49.71
   1  15  -4    3.78   10.14
   1 -15  -4   10.64    9.88
   1  16  -4   38.20   17.97
   1 -16  -4   41.53   18.06
   1  17  -4    6.82   13.35
   1 -17  -4   -0.48   10.70
   1  18  -4   97.52   45.44
   1 -18  -4  123.72   45.30
   1  19  -4    6.41   13.64
   1 -19  -4    5.43   15.72
   1  20  -4   -0.18   14.22
   1 -20  -4    1.86   15.95
   2   0   4  285.25  124.65
   2   0  -4  307.54  124.33
   2   1   4   57.53   23.93
   2   1  -4   47.04   22.16
   2  -1  -4   44.00   21.05
   2  -1   4   61.16   22.99
   2   2   4  108.61   33.38
   2   2  -4   70.77   31.96
   2  -2   4   62.61   31.70
   2   3  -4    4.27    9.27
   2   4   4   11.31   15.48
   2   4  -4    9.29    8.73
   2  -4  -4   19.61    8.36
   2  -4   4   11.97   22.87
   2   5   4  723.63  440.84
   2   5  -4 1412.72  444.64
   2  -5  -4  888.21  444.54
   2  -5   4  346.83  439.55
   2   6   4 1360.85  446.77
   2   6  -4  979.31  449.99
   2  -6  -4 1102.48  450.13
   2  -6   4 1018.29  449.00
   2   7   4  662.83  265.94
   2   7  -4  831.36  267.94
   2  -7  -4  529.19  267.54
  -2   7  -4  116.46  177.63
   2   8  -4   16.17   11.75
   2  -8  -4    8.29    8.06
   2   9  -4   11.33   11.12
   2  -9  -4    7.46    7.69
   2  10  -4    5.95   11.17
   2 -10  -4    4.70    7.56
  -2  10   4   -0.07   23.30
   2  11  -4   66.51   37.19
   2 -11  -4  110.47   36.43
   2  12  -4   29.92   17.49
   2 -12  -4   44.50   15.40
  -2  12   4   17.88   31.71
   2  13  -4   38.00   16.20
   2 -13  -4   24.21   13.01
  -2  13   4   10.92   25.16
   2  14  -4  457.03  173.80
   2 -14  -4  421.64  173.36
  -2  14   4   97.55  119.00
   2  15  -4    8.79   12.15
   2 -15  -4    8.65    9.80
  -2  15   4    8.21   24.65
   2  16  -4  102.41   37.67
   2 -16  -4   72.56   36.12
   2  17  -4    6.54    8.88
   2 -17  -4   14.81    9.04
   2  18  -4   13.30   13.32
   2 -18  -4   15.86   10.67
   2  19  -4    1.03   14.90
   2 -19  -4    0.88   13.56
   2  20  -4    8.35   16.19
   2 -20  -4    2.91   14.59
   3   0   4    1.33   13.79
   3   0  -4    1.84    7.49
  -3   0   4   -0.29   13.70
   3   1   4   10.96   12.79
   3   1  -4    8.66   10.27
   3  -1  -4    9.74    8.53
  -3   1  -4    6.83   12.86
   3  -1   4   10.42    8.37
   3   2   4   37.58   16.67
   3  -2  -4   40.22   15.04
  -3   2  -4   15.60   15.07
   3   3   4   84.95   40.36
   3  -3  -4  115.34   39.37
   3  -3   4   74.40   38.60
   3   4   4  155.52   80.02
   3   4  -4  325.59   81.52
   3  -4  -4  159.84   80.92
  -3   4  -4   26.96   55.98
   3  -4   4  109.81   79.76
   3   5  -4  214.01   61.23
   3  -5  -4   93.74   60.17
   3   6   4  315.15  171.82
   3   6  -4  549.63  173.95
  -3   6  -4   61.53  117.35
   3   7   4   33.86   27.05
   3   7  -4   27.65   14.44
   3  -7  -4   12.87    9.15
  -3   7   4    4.93   13.73
   3   8  -4  262.17   90.45
   3  -8  -4  178.17   90.06
   3   9   4   15.91   22.25
   3   9  -4   53.17   17.87
   3  -9  -4   29.64   14.66
  -3   9   4    6.90   17.80
   3  10  -4   15.55   12.25
   3 -10  -4    5.59    7.21
   3  11  -4   15.55   12.74
   3  12  -4  107.07   36.83
   3 -12  -4   81.02   35.42
  -3  12   4   20.64   33.39
   3  13  -4  660.41  227.24
   3 -13  -4  475.14  226.95
  -3  13   4  221.26  153.61
   3  14  -4  269.68   89.62
   3 -14  -4  177.83   88.82
  -3  14   4   72.79   70.42
   3  15  -4  300.24  229.87
   3 -15  -4  773.53  230.50
   3  16  -4  755.27  264.37
   3 -16  -4  547.86  264.07
  -3  16   4  348.59  186.04
   3  17  -4  144.15   52.96
   3 -17  -4  109.37   52.04
   3  18  -4   63.73   30.71
   3 -18  -4   66.31   29.88
   3  19  -4    7.24   17.52
   3 -19  -4    4.27   11.69
   3 -20  -4   -0.86   12.49
   4   0  -4   33.92   15.06
   4   1   4    7.38   11.60
   4   1  -4    8.71   11.79
   4  -1  -4    1.54    8.36
  -4   1  -4   -3.17   10.58
   4  -1   4    0.01    8.09
   4   2   4  144.48   70.44
   4   2  -4  229.22   71.14
   4  -2  -4  137.45   71.06
   4  -2   4  182.14   71.23
   4   3   4   26.37   20.19
   4   3  -4   21.47   13.17
   4  -3  -4   15.20    8.42
  -4   3   4    4.99   11.13
  -4   3  -4   -3.76   18.98
   4  -3   4   29.31   12.03
   4   4   4  111.11   49.91
   4   4  -4  203.20   49.35
   4  -4  -4  103.60   48.67
  -4   4   4   86.75   37.99
  -4   4  -4   29.73   36.04
   4  -4   4   88.53   48.28
   4   5   4    2.68   29.67
   4   5  -4   22.26   12.44
  -4   5  -4    3.16   12.02
   4   6   4   27.90   28.07
   4   6  -4   33.62   16.56
   4   7  -4  326.91   81.03
   4  -7  -4  168.89   80.83
  -4   7   4   72.31   57.40
   4  -7   4  130.41   79.91
   4   8   4  424.06  295.08
   4   8  -4 1007.69  298.13
   4  -8  -4  584.16  298.47
   4   9  -4  145.36   41.25
   4  -9  -4   80.09   40.15
  -4   9   4   32.51   33.05
   4  10   4  199.15  162.71
   4  10  -4  624.51  163.11
   4 -10  -4  329.26  163.18
  -4  10   4  147.53  109.90
   4  11  -4  400.38  125.06
   4 -11  -4  242.29  125.00
   4  12  -4  931.91  260.03
   4 -12  -4  530.51  260.14
  -4  12   4  141.41  172.68
   4  13  -4  936.70  244.28
   4 -13  -4  461.99  244.18
  -4  13   4  145.05  162.58
   4  14  -4    7.35   15.03
   4 -14  -4    1.80    6.91
  -4  14   4   -6.90   20.04
   4  15  -4    1.88   10.34
   4 -15  -4    4.17    7.29
  -4  15   4    0.70   32.89
   4  16  -4   16.81   15.72
   4 -16  -4   16.53    9.38
   4  17  -4  360.39  148.56
   4 -17  -4  343.83  148.15
   4  18  -4   59.26   29.60
   4 -18  -4   64.29   27.64
   4  19  -4   40.43   21.45
   4 -19  -4   37.26   18.89
   5   0  -4    0.11    6.98
   5   1   4    7.39   14.81
   5   1  -4   -0.20   11.24
   5   2   4   78.99   34.28
   5   2  -4   80.14   33.90
   5   3   4    3.29   20.73
   5   3  -4    9.85   13.77
   5  -3  -4    5.46    6.62
   5   4   4   18.03   30.57
   5   4  -4   58.44   19.87
   5  -4  -4   33.00   16.71
   5  -4   4   38.42   17.09
   5   5   4    2.66   28.76
   5   5  -4   15.22   13.43
   5  -5  -4    7.22    9.77
  -5   5   4    0.74   15.24
   5   6  -4   12.87   13.27
   5  -6  -4   16.49    9.33
   5   7   4   17.08   27.48
   5   7  -4   29.74   14.13
   5  -7  -4   16.49   10.47
   5  -7   4   15.95   13.57
   5   8  -4   -1.93   12.70
   5  -8  -4    3.38    8.29
  -5   8   4    1.81   11.46
   5   9  -4  989.82  374.48
   5  -9  -4  884.46  375.23
  -5   9   4  481.92  247.73
   5  10   4  281.92  278.87
   5  10  -4  801.85  280.66
   5 -10  -4  639.20  281.20
   5  11  -4  954.39  343.27
   5 -11  -4  803.99  343.74
  -5  11   4  334.80  227.45
   5  12  -4   -4.77   16.56
   5 -12  -4   -0.28    9.13
  -5  12   4   -0.54   19.21
   5  13  -4   43.58   20.22
   5 -13  -4   32.71   15.55
  -5  13   4    8.55   22.82
   5  14  -4   26.09   18.79
   5 -14  -4   33.93   14.16
  -5  14   4    9.88   24.25
   5  15  -4  136.78   62.52
   5 -15  -4  177.06   62.56
  -5  15   4   29.36   47.84
   5  16  -4   87.62   34.86
   5 -16  -4   87.69   33.39
  -5  16   4   21.33   33.43
   5  17  -4   28.66   16.77
   5 -17  -4   28.86   12.54
   5  18  -4    6.31   15.77
   5 -18  -4    9.47   12.10
   5  19  -4  157.76   86.41
   5 -19  -4  238.27   86.51
   6   0   4   25.83   16.16
   6   0  -4   22.03   11.50
   6   1   4  237.11   96.06
   6   1  -4  257.27   98.17
   6  -1  -4  228.14   99.00
   6   2   4  876.80  206.38
   6   2  -4  663.39  206.97
   6  -2  -4  607.44  207.78
   6  -2   4  215.00  207.57
   6   3   4  387.83  185.02
   6   3  -4  461.86  186.05
   6  -3  -4  522.48  187.03
   6  -3   4  312.22  186.53
   6   4  -4   31.28   20.00
   6  -4  -4   46.56   18.54
   6   5   4   46.33   36.82
   6   5  -4   79.02   28.16
   6  -5  -4   73.64   27.72
  -6   5   4   32.21   22.32
   6  -5   4   50.58   26.51
   6   6   4   20.86   27.70
   6   6  -4   32.40   17.02
   6  -6  -4   29.69   14.10
  -6   6   4    9.10   15.93
   6  -6   4   16.51   13.23
   6   7  -4   97.47   29.24
   6  -7  -4   72.46   28.01
  -6   7   4   41.53   29.13
   6  -7   4   26.04   25.65
   6   8  -4  266.50  154.41
   6  -8  -4  439.13  155.51
  -6   8   4  161.11  105.52
   6   9   4    1.18   24.76
   6   9  -4   27.40   16.58
   6  -9  -4   28.10   12.47
  -6   9   4    2.45   14.96
   6  10  -4  159.22   74.42
   6 -10  -4  205.50   74.95
  -6  10   4   61.95   54.23
   6  11  -4  182.01   69.58
   6 -11  -4  174.31   69.67
  -6  11   4   54.23   55.15
   6  12  -4  182.62   58.74
   6 -12  -4  119.86   58.43
   6  13  -4   98.79   37.58
   6 -13  -4   93.45   36.87
  -6  13   4   13.32   37.82
   6  14  -4  114.38   48.75
   6 -14  -4  115.43   48.48
   6  15  -4   48.96   25.88
   6 -15  -4   64.41   24.32
  -6  15   4   24.91   31.83
   6  16  -4   19.43   21.18
   6 -16  -4   34.83   14.65
   6  17  -4  221.81   92.30
   6 -17  -4  217.04   92.47
   6  18  -4  118.52   59.52
   6 -18  -4  147.42   58.59
   7   0   4   -2.24   13.57
   7   0  -4   -0.07    9.01
   7   1   4   80.96   31.71
   7   1  -4   66.30   29.73
   7  -1  -4   79.74   32.40
   7  -1   4   76.58   32.69
   7   2   4  115.82   52.29
   7   2  -4  102.29   49.79
   7  -2  -4  123.68   50.82
   7  -2   4  123.55   51.02
   7   3  -4  641.15  270.84
   7  -3  -4  640.13  272.31
   7   4   4  392.53  177.42
   7   4  -4  526.17  178.55
   7  -4   4  376.36  178.69
   7   5   4  853.34  346.60
   7   5  -4  832.07  347.71
   7  -5  -4  808.41  348.69
   7   6   4   68.35   32.97
   7   6  -4   67.06   27.84
   7  -6  -4   66.42   26.55
  -7   6   4   37.20   21.71
   7  -6   4   62.51   27.12
   7   7   4   29.22   29.60
   7   7  -4   19.22   15.97
   7  -7  -4   29.77   12.07
  -7   7   4   13.38   17.50
   7   8   4   25.02   28.06
   7   8  -4   33.65   18.93
   7  -8  -4   39.21   15.86
  -7   8   4   25.89   26.05
   7   9  -4  102.84   44.47
   7  -9  -4  114.73   44.09
  -7   9   4   38.07   36.78
   7  10   4   47.92   57.96
   7  10  -4  136.52   45.59
   7 -10  -4  115.83   45.14
  -7  10   4   39.38   37.78
   7  11  -4   12.01   15.00
   7 -11  -4   12.16   11.93
  -7  11   4    9.10   20.62
   7  12   4   14.05   42.14
   7  12  -4   28.50   17.88
   7 -12  -4   28.43   13.40
  -7  12   4   13.86   26.21
   7  13  -4   11.61   16.26
   7 -13  -4   19.19   10.94
   7  14  -4  116.80   49.11
   7 -14  -4  128.34   48.71
  -7  14   4   30.62   45.88
   7  15  -4    2.26   19.44
   7 -15  -4    4.28    8.93
   7  16  -4   -1.38   19.71
   7 -16  -4    1.15   12.49
   7  17  -4   -1.56   19.73
   7 -17  -4    6.86   12.42
   7 -18  -4   85.93   37.42
   8   0   4  184.39   74.74
   8   1   4  305.64  125.52
   8   1  -4  296.81  123.88
   8  -1  -4  236.60  127.92
   8  -1   4  372.91  128.11
   8   2   4    7.44   24.85
   8   2  -4   12.05   17.28
   8  -2  -4    3.06    8.02
   8  -2   4    6.28    9.07
   8   3   4  359.38  157.83
   8   3  -4  357.05  155.69
   8  -3  -4  372.94  159.44
   8  -3   4  383.88  159.46
   8   4   4 1036.48  434.32
   8   4  -4 1467.66  435.39
   8  -4  -4 1214.21  437.58
   8  -4   4  735.14  437.27
   8   5   4   -0.24   18.33
   8   5  -4    5.78   20.33
   8  -5  -4   -2.50    7.59
   8  -5   4   -0.09   10.09
   8   6   4   30.34   20.18
   8   6  -4   52.47   21.21
   8  -6  -4   53.29   16.93
   8  -6   4    9.69   17.23
   8   7   4  138.89   86.88
   8   7  -4  185.89   89.66
   8  -7  -4  231.48   90.51
   8   8   4    9.94   28.26
   8   8  -4   19.06   15.27
   8  -8  -4   21.32    9.27
  -8   8   4   16.64   25.79
   8   9   4   -6.13   44.61
   8   9  -4    6.29   14.10
   8  -9  -4    5.10    7.59
  -8   9   4   -2.32   32.01
   8  10  -4   41.38   20.98
   8 -10  -4   33.31   14.54
  -8  10   4   21.96   25.75
   8  11  -4    3.95   13.84
  -8  11   4   10.04   20.25
   8  12  -4   25.60   15.80
   8 -12  -4   23.32   11.67
  -8  12   4   17.09   23.05
   8  13  -4   13.39   14.72
   8 -13  -4   -4.52    9.48
  -8  13   4    4.82   25.80
   8  14  -4   19.70   21.81
   8 -14  -4   57.87   20.84
   8  15  -4    3.67   14.64
   8 -15  -4    8.43    9.65
   8  16  -4    0.86   20.55
   8 -16  -4    2.14   12.89
   8  17  -4   21.59   25.76
   8 -17  -4    7.07   12.65
   9   0   4  369.56  154.44
   9   1   4  706.50  284.64
   9   1  -4  728.27  283.65
   9  -1  -4  681.48  287.47
   9  -1   4  656.20  287.38
   9   2   4  446.97  151.29
   9   2  -4  753.81  150.16
   9  -2  -4  303.26  152.25
   9   3   4  189.04   80.33
   9   3  -4  206.82   77.65
   9  -3  -4  191.23   81.26
   9   4  -4  144.45   53.99
   9  -4  -4  141.01   57.52
   9  -4   4  128.92   57.31
   9   5   4    8.68   18.41
   9   5  -4    1.93   16.56
   9  -5  -4    4.35    6.95
   9   6   4    7.18   41.02
   9   6  -4  118.04   40.68
   9  -6  -4  115.56   42.97
   9  -6   4   91.99   43.63
   9   7   4    1.39   23.53
   9   7  -4   99.05   28.99
   9  -7  -4   76.34   26.16
   9  -7   4   36.73   27.24
   9   8  -4   31.62   20.85
   9  -8  -4   18.17    9.07
  -9   8   4   17.36   18.69
   9   9  -4    8.02   18.78
   9  10  -4   28.27   19.03
   9 -10  -4   18.44    8.93
  -9  10   4    2.16   34.20
   9  11   4   -5.52   44.06
   9  11  -4   19.35   19.26
   9 -11  -4   31.20   11.43
  -9  11   4   18.38   29.46
   9  12  -4   52.25   27.09
   9 -12  -4   67.91   23.97
  -9  12   4    5.15   31.00
   9  13  -4    4.83   17.38
   9 -13  -4    2.87    6.67
  -9  13   4   -1.61   28.71
   9  14  -4   68.04   27.21
   9 -14  -4   59.15   23.69
  -9  14   4    9.00   32.94
   9  15  -4   23.36   24.71
   9 -15  -4   20.93   15.35
   9  16  -4   11.75   25.02
   9 -16  -4    7.78   13.59
  10   0   4  103.90   46.22
  10   0  -4  110.94   46.67
  10   1   4    6.87   22.80
  10   1  -4    8.32   20.80
  10  -1   4    2.04    9.22
  10   2   4  287.69   87.40
  10   2  -4  301.84   86.99
  10  -2  -4  185.64   87.87
  10   3   4   -4.10   18.23
  10   3  -4    1.51   20.10
  10  -3  -4    3.67    7.63
  10  -3   4    2.70   10.41
  10   4  -4  133.43   41.09
  10  -4  -4   92.58   43.49
  10  -4   4  112.75   43.87
  10   5  -4  108.62   31.44
  10  -5  -4   88.08   33.26
  10  -5   4   65.05   33.51
  10   6  -4   57.88   23.61
  10  -6  -4   58.80   24.38
  10   7   4    3.12   32.91
  10   7  -4  106.77   35.04
  10  -7  -4   94.41   37.00
  10   8   4    5.56   35.20
  10   8  -4   45.57   16.61
  10  -8  -4   37.20   14.25
 -10   8   4   22.29   24.31
  10   9   4    7.76  108.90
  10   9  -4  318.50  107.62
  10  -9  -4  297.52  110.95
 -10   9   4  166.93   79.41
  10  10   4   -5.31  104.68
  10  10  -4  390.19  103.68
  10 -10  -4  258.68  106.42
 -10  10   4  248.35   81.77
  10  11   4    7.84   50.09
  10  11  -4   52.95   22.94
  10 -11  -4   65.45   24.17
 -10  11   4   36.10   39.02
  10  12  -4    1.09   12.86
  10 -12  -4   -0.68    6.45
 -10  12   4   -5.76   26.91
  10  13  -4   27.46   16.55
  10 -13  -4   49.73   17.25
 -10  13   4    1.16   29.90
  10  14  -4    6.93   14.76
  10 -14  -4   10.19    8.83
  10  15  -4    1.32   15.45
  10 -15  -4    5.89   11.20
  10 -16  -4   21.97   15.57
  11   0   4   -0.56   20.62
  11   0  -4    0.43    9.63
  11   1   4   10.73   17.51
  11   1  -4    1.92   18.69
  11   2   4   24.17   19.49
  11   2  -4   22.96   20.09
  11  -2  -4    0.24    7.88
  11  -2   4   -2.46    9.59
  11   3  -4   -3.19   20.93
  11  -3  -4    0.22    8.05
  11   4   4    5.98   19.67
  11   4  -4    9.17   15.59
  11  -4  -4    1.63    8.02
  11   5   4   -3.70   15.34
  11   5  -4   46.26   20.85
  11  -5  -4   26.39   12.63
  11   6   4   -1.80   48.04
  11   6  -4  217.23   51.98
  11  -6  -4  155.56   53.86
  11  -6   4  101.48   54.11
  11   7  -4  341.57   73.86
  11  -7  -4  162.43   75.48
  11   8  -4  197.12   51.83
  11  -8  -4  133.17   53.80
 -11   8   4   68.75   41.96
  11   9   4   15.61   46.27
  11   9  -4   91.16   22.24
 -11   9   4   42.55   24.12
  11  10   4   -1.78   44.44
  11  10  -4   47.99   17.56
  11 -10  -4   36.26   14.20
 -11  10   4   22.63   26.74
  11  11  -4   20.63   15.60
  11 -11  -4   30.70   11.99
 -11  11   4    2.30   30.32
  11  12  -4  415.12  147.07
  11 -12  -4  348.57  150.35
  11  13  -4    9.98   19.09
  11 -13  -4   18.71   11.58
  11  14  -4   22.07   21.19
  11 -14  -4   36.43   16.81
  12   0   4  115.03   22.23
  12   0  -4    1.84    9.42
  12   1   4   48.67   21.19
  12   1  -4   47.71   21.34
  12  -1  -4    0.29    8.09
  12   2   4   66.17   21.68
  12   2  -4   60.86   26.23
  12  -2  -4    0.66    7.91
  12  -2   4    0.33    8.52
  12   3  -4   -0.26   19.94
  12  -3  -4    1.81    7.83
  12   4   4   11.25   16.32
  12   4  -4   95.49   22.33
  12  -4  -4   -2.54    8.51
  12   5   4   -2.16   23.25
  12   5  -4    8.97   22.02
  12  -5  -4   -1.81    8.05
  12  -5   4    0.43   12.72
  12   6   4    1.48   18.26
  12   6  -4   17.43   22.56
  12  -6  -4    2.09    7.75
  12   7   4   -3.09   42.46
  12   7  -4   -0.02   16.61
  12  -7  -4    2.37    7.88
  12   8   4   -6.91   35.73
  12   8  -4   64.24   27.83
  12  -8  -4   44.29   16.57
 -12   8   4   22.65   22.92
  12   9   4  -14.08   47.94
  12   9  -4   17.19   20.70
  12  -9  -4   21.96    9.10
 -12   9   4   17.13   19.29
  12  10  -4   50.20   22.96
  12 -10  -4   59.47   23.19
 -12  10   4   34.75   28.49
  12  11  -4    7.81   20.60
  12 -11  -4    3.78    7.89
  12  12  -4   50.84   26.66
  12 -12  -4   56.95   24.71
  12  13  -4   -2.65   27.45
  12 -13  -4    0.29    8.18
  13   0   4    2.27   19.99
  13   0  -4    4.70   10.30
  13   1   4   -1.17   20.54
  13   1  -4    6.08   19.72
  13  -1  -4   -0.63    7.81
  13  -1   4    0.23   11.05
  13   2   4    3.78   19.74
  13   2  -4   -5.02   19.32
  13  -2  -4   -2.18    8.03
  13  -2   4   -0.42    9.47
  13   3   4   -1.30   17.96
  13   3  -4   19.61   21.58
  13  -3  -4    2.31    9.23
  13  -3   4   -1.17   10.50
  13   4   4    2.38   23.87
  13   4  -4    4.91   21.47
  13  -4  -4    1.84    9.22
  13   5   4   -0.24   18.71
  13   5  -4   35.44   21.84
  13  -5  -4   -0.89    7.29
  13   6   4   -2.85   36.00
  13  -6  -4    2.15   17.91
  13   7  -4  195.47   27.25
  13  -7  -4    1.71   12.81
  13   8   4   -1.49   38.84
  13   8  -4   51.26   27.66
  13  -8  -4    3.60    8.20
 -13   8   4    4.66   20.08
  13   9  -4  148.17   44.06
  13  -9  -4   81.20   38.04
  13  10  -4   -5.20   28.95
  13 -10  -4    1.50    8.35
  13  11  -4   -0.48   29.45
  13 -11  -4    1.57    8.27
  13  12  -4  211.30   90.27
  14   0   4   50.02   23.42
  14   0  -4    1.44   10.12
  14   1   4    3.98   17.93
  14   1  -4    7.69   21.26
  14  -1  -4   -0.05    8.20
  14   2   4   -1.23   19.30
  14  -2  -4   -1.96   10.20
  14   3   4   -4.05   17.29
  14   3  -4   41.62   20.98
  14   4   4    0.73   17.08
  14  -4  -4    2.51   11.80
  14   5   4   -2.34   38.39
  14   5  -4   -6.83   19.53
  14  -5  -4    5.93    7.68
  14   6   4   13.32   35.35
  14   6  -4   87.83   26.49
  14  -6  -4    0.06    8.06
  14   7  -4   27.15   28.39
  14  -7  -4   -0.70   11.91
  14   8  -4  133.29   31.19
  14  -8  -4    4.12   12.02
  14   9  -4  156.48   67.68
  14  10  -4  103.37   48.24
  15   0   4    3.09   26.30
  15   1   4    6.36  101.16
  15   1  -4  467.81  107.32
  15   2   4   -1.48   26.31
  15   2  -4   64.17   25.36
  15   3  -4    3.21   22.51
  15   4  -4   37.15   23.29
  15   5  -4   44.96   24.57
  15   6  -4   23.14   20.77
  15   7  -4   -1.40   21.65
   0   0   5    0.24   16.52
   0   1   5   -2.46   18.84
   0   2   5    0.28   18.95
   0   2  -5    0.16   14.55
   0   3   5    1.39   22.58
   0   3  -5   -0.11   11.99
   0   4   5    7.64   24.94
   0   4  -5    1.71   11.28
   0   5   5    6.20   41.41
   0   5  -5   -0.59   10.93
   0   6   5    2.38   50.60
   0   6  -5    6.59   10.33
   0   7  -5  128.12   53.87
   0   8  -5    2.96   12.48
   0   9  -5   37.35   18.38
   0  10  -5    6.03   11.90
   0  11  -5    5.67   11.84
   0  12  -5    1.30   14.02
   0  13  -5  190.44   80.70
   0  14  -5   -1.57   15.05
   1   0   5    6.41   18.79
   1   0  -5    1.36   17.87
   1   1   5    7.55   18.16
   1   1  -5    0.89   16.09
   1   2  -5    2.87   15.08
   1   3   5   -2.18   28.15
   1  -3   5    0.45   19.59
   1   4   5    3.10   27.38
   1   4  -5    0.17   14.06
   1  -4  -5    3.54    9.98
   1   5   5   -3.83   46.49
   1   5  -5   -4.90   12.71
   1  -5  -5   -1.83   10.28
   1  -5   5   -7.24   37.56
   1   6  -5  176.51   45.22
   1  -6  -5   55.35   44.03
   1   7  -5  491.15  160.46
   1  -7  -5  294.37  160.06
   1   8  -5  250.60   97.37
   1  -8  -5  213.96   97.05
   1   9  -5    6.19   13.96
   1  -9  -5    7.92   11.39
   1  10  -5   31.56   16.16
   1 -10  -5   17.80   14.16
   1  11  -5   33.25   18.19
   1 -11  -5   33.88   18.53
   1  12  -5    6.65   15.67
   1 -12  -5    3.20   16.79
   1  13  -5  388.64  137.14
   1 -13  -5  262.04  136.66
   1  14  -5  108.40   42.50
   1 -14  -5   85.36   41.55
   2   0   5    3.99   18.29
   2   1   5    4.44   22.28
   2   1  -5   -7.97   19.15
   2  -1   5   -1.25   18.39
   2   2  -5   -5.82   18.20
   2  -2  -5    1.43   10.20
   2   3   5   -1.90   19.51
   2   4   5    2.19   30.01
   2   4  -5    2.73   15.40
   2  -4  -5    3.99   11.76
   2  -4   5    8.53   27.22
   2   5   5    2.91   50.92
   2   5  -5    8.70   15.39
   2  -5  -5    6.65   10.52
   2   6   5    8.41   52.70
   2   6  -5    4.51   15.94
   2  -6  -5   -2.79   11.50
   2   7  -5   67.43   25.45
   2  -7  -5   39.94   23.53
   2   8  -5  190.53   84.71
   2  -8  -5  211.34   84.34
   2   9  -5  592.86  242.21
   2  -9  -5  547.15  241.78
   2  10  -5  164.50   67.45
   2 -10  -5  153.70   66.62
   2  11  -5    6.45   15.16
   2 -11  -5    7.30   12.27
   2  12  -5    3.87   17.31
   2 -12  -5    6.07   15.16
   2  13  -5   14.89   18.28
   2 -13  -5   14.28   15.73
   2  14  -5   13.06   13.80
   2 -14  -5   25.21   16.46
   3   0   5    0.23   22.50
   3   0  -5    1.33   12.52
   3   1   5   -1.90   23.06
   3   1  -5    7.61   17.68
   3  -1   5   -3.36   15.35
   3   2   5    1.59   18.84
   3   2  -5    2.46   17.85
   3  -2  -5    0.74   10.09
   3  -2   5    1.43   17.51
   3   3   5   -0.84   23.91
   3   3  -5    0.05   18.82
   3   4  -5    5.21   18.12
   3  -4  -5    0.30   15.02
   3  -4   5   -1.21   24.48
   3   5  -5   19.53   17.68
   3  -5  -5   -9.71   16.25
   3   6  -5   53.43   20.42
   3  -6  -5    3.36   15.83
   3   7  -5  129.89   30.81
   3  -7  -5   -2.09   28.52
   3   8  -5    3.61   16.36
   3  -8  -5   -0.10   13.31
   3   9  -5  146.43   64.32
   3  -9  -5  159.56   64.51
   3 -10  -5   16.64   15.33
   3  11  -5   10.32   15.91
   3 -11  -5   18.65   15.17
   3  12  -5   17.07   15.67
   3 -12  -5    6.27   15.04
   3  13  -5    5.20   15.73
   3 -13  -5    2.67   15.54
   4   0   5   -1.67   25.25
   4   1  -5    1.91   23.54
   4   2   5   -5.39   24.41
   4   2  -5   -2.18   21.62
   4  -2  -5   -0.86   13.20
   4  -2   5   -0.34   15.72
   4   3   5   -1.03   31.60
   4   3  -5    5.21   17.86
   4  -3  -5   -2.43   13.98
   4  -3   5   -3.20   19.43
   4   4   5    4.78   32.81
   4   4  -5   -0.64   18.10
   4   5   5   -7.39   41.89
   4   5  -5  191.11   34.59
   4  -5  -5    5.08   27.89
   4   6  -5  102.91   26.51
   4  -6  -5    0.72   19.02
   4   7  -5  112.11   24.25
   4  -7  -5   -1.00   19.42
   4   8  -5   31.51   16.06
   4  -8  -5   -1.80   10.68
   4   9  -5   41.08   19.23
   4  -9  -5   29.77   16.45
   4  10  -5    2.84   14.26
   4 -10  -5    7.59    9.81
   4  11  -5    5.87   16.86
   4 -11  -5    2.31   12.28
   4  12  -5    3.10   17.07
   4 -12  -5   -2.12   12.91
   4  13  -5   27.12   18.76
   4 -13  -5   20.00   15.58
   5   0   5   -1.05   22.45
   5   1   5   -1.73   29.83
   5   1  -5    0.21   22.98
   5  -1  -5    3.11   14.34
   5  -1   5   -3.90   13.94
   5   2   5    4.76   31.34
   5   2  -5   -0.83   22.39
   5  -2  -5   -0.03   15.65
   5   3  -5   -0.65   18.68
   5  -3  -5    2.11   11.67
   5  -3   5    5.56   18.66
   5   4   5   -1.04   36.67
   5  -4  -5   -1.32   10.89
   5   5   5    1.39   35.40
   5  -5  -5   -1.42   11.08
   5   6   5   -3.87   83.86
   5   6  -5  279.65   88.17
   5   7  -5    1.32   15.54
   5  -7  -5    0.94   11.31
   5   8  -5   15.00   15.74
   5  -8  -5    1.08   11.21
   5   9  -5    0.34   16.83
   5  -9  -5    0.31   11.67
   5  10  -5   -3.34   18.99
   5 -10  -5    6.45   11.64
   5  11  -5   38.27   23.63
   5 -11  -5   38.59   18.96
   5  12  -5    0.40   19.47
   5 -12  -5    2.00   12.44
   6   0   5    1.56   24.66
   6   1   5   -5.51   31.04
   6   1  -5    1.35   22.26
   6  -1  -5    1.96   12.39
   6  -1   5    3.17   17.78
   6   2   5   -7.55   33.55
   6   2  -5    0.90   18.67
   6  -2  -5    0.40   13.71
   6  -2   5    1.73   19.02
   6   3   5    3.69   29.66
   6   3  -5    1.17   28.68
   6  -3  -5    2.70   13.63
   6   4  -5    3.29   22.80
   6  -4  -5    0.62   14.32
   6  -5  -5    0.33   12.14
   6   6  -5    6.46   18.60
   6   7  -5  115.87   25.82
   6  -7  -5    2.35   19.43
   6   8  -5    5.16   14.81
   6   9  -5    6.39   20.44
   6  -9  -5    1.27   11.65
   6  10  -5    4.38   21.16
   6 -10  -5    2.48   14.37
   6  11  -5   18.43   22.78
   6 -11  -5   27.59   16.83
   6  12  -5   59.58   32.02
   7   0  -5   -0.46   14.89
   7   1   5   -1.54   39.68
   7   1  -5   -5.45   25.51
   7  -1  -5    3.61   14.56
   7  -1   5    0.86   19.67
   7   2   5    2.26   29.17
   7   3   5    4.79   36.40
   7   3  -5    3.61   21.97
   7  -3  -5    0.41   11.89
   7   4  -5    1.36   19.01
   7  -4  -5    1.78   12.28
   7   5   5    1.25   22.54
   7   5  -5    1.02   23.27
   7  -5  -5    0.66   15.30
   7   6  -5   15.01   25.78
   7  -6  -5    0.99   12.14
   7   7  -5   19.09   19.03
   7  -7  -5   -0.62   12.06
   7   8  -5   48.04   25.31
   7  -8  -5    4.99   15.64
   7   9  -5    9.96   22.58
   7  -9  -5    3.45   18.15
   7  10  -5  338.18   55.76
   7 -10  -5   -0.97   50.32
   7  11  -5  151.21   65.85
   8   0   5  -11.95   31.45
   8   0  -5    4.33   13.08
   8   1   5   -1.80   29.55
   8   1  -5   -3.88   29.52
   8  -1  -5    0.24   15.58
   8   2  -5   -5.12   30.98
   8  -2  -5    1.85   13.17
   8   3   5    2.71   32.39
   8   3  -5    5.22   24.82
   8  -3  -5    2.44   12.84
   8   4  -5   -2.49   29.52
   8  -4  -5    1.34   12.39
   8   5  -5   -3.13   23.52
   8   6  -5    5.37   22.79
   8  -6  -5    3.21   10.88
   8   7  -5   32.90   17.69
   8  -7  -5    1.00   10.57
   8   8  -5   95.13   44.61
   8   9  -5  136.35   62.90
   8  10  -5   12.67   30.29
   9   1   5    4.05   30.26
   9   1  -5   -3.14   29.96
   9   2  -5   -6.75   40.76
   9   3  -5    1.27   30.00
   9   4  -5   -4.79   31.88
   9   5  -5   -4.68   23.02
   9   6  -5   17.45   20.34
   9   7  -5   12.19   19.96
   9   8  -5    8.79   25.13
  10   0   5    2.19   31.75
  10   1  -5    6.16   28.85
  10   2  -5   -6.49   26.90
  10   3  -5    1.00   27.20
  10   4  -5   11.86   28.11
  10   5  -5    9.08   25.51
   0   0   0    0.00    0.00

_computing_structure_solution     'SHELXT 2014/5 (Sheldrick, 2014)'
;
_shelx_hkl_checksum   57564

