 
data_FAPbI_DMF2
 
_audit_creation_method            SHELXL-2013
_chemical_name_systematic
;
 ?
;
_chemical_name_common             ?
_chemical_melting_point           ?
_chemical_formula_moiety          
 'I8 Pb3, 4(C3 H7 N O), 2(C H5 N2)'
_chemical_formula_sum
 'C14 H38 I8 N8 O4 Pb3' 
_chemical_formula_weight          2019.32

loop_
 _atom_type_symbol
 _atom_type_description
 _atom_type_scat_dispersion_real
 _atom_type_scat_dispersion_imag
 _atom_type_scat_source
 'C'  'C'   0.0050   0.0020
 'International Tables Vol C Tables 4.2.6.8 and 6.1.1.4'
 'H'  'H'   0.0000   0.0000
 'International Tables Vol C Tables 4.2.6.8 and 6.1.1.4'
 'N'  'N'   0.0090   0.0040
 'International Tables Vol C Tables 4.2.6.8 and 6.1.1.4'
 'O'  'O'   0.0150   0.0080
 'International Tables Vol C Tables 4.2.6.8 and 6.1.1.4'
 'I'  'I'  -0.2582   2.2555
 'International Tables Vol C Tables 4.2.6.8 and 6.1.1.4'
 'Pb'  'Pb'  -7.4040  10.6371
 'International Tables Vol C Tables 4.2.6.8 and 6.1.1.4'
 
_space_group_crystal_system       orthorhombic
_space_group_IT_number            43
_space_group_name_H-M_alt         'F d d 2'
_space_group_name_Hall            'F 2 -2d'
 
_shelx_space_group_comment
;
The symmetry employed for this shelxl refinement is uniquely defined
by the following loop, which should always be used as a source of
symmetry information in preference to the above space-group names.
They are only intended as comments.
;
 
loop_
 _space_group_symop_operation_xyz
 'x, y, z'
 '-x, -y, z'
 'x+1/4, -y+1/4, z+1/4'
 '-x+1/4, y+1/4, z+1/4'
 'x, y+1/2, z+1/2'
 '-x, -y+1/2, z+1/2'
 'x+1/4, -y+3/4, z+3/4'
 '-x+1/4, y+3/4, z+3/4'
 'x+1/2, y, z+1/2'
 '-x+1/2, -y, z+1/2'
 'x+3/4, -y+1/4, z+3/4'
 '-x+3/4, y+1/4, z+3/4'
 'x+1/2, y+1/2, z'
 '-x+1/2, -y+1/2, z'
 'x+3/4, -y+3/4, z+1/4'
 '-x+3/4, y+3/4, z+1/4'
 
_cell_length_a                    40.200(8)
_cell_length_b                    45.720(9)
_cell_length_c                    4.5800(9)
_cell_angle_alpha                 90
_cell_angle_beta                  90
_cell_angle_gamma                 90
_cell_volume                      8418(3)
_cell_formula_units_Z             8
_cell_measurement_temperature     100(2)
_cell_measurement_reflns_used     500
_cell_measurement_theta_min       3.5
_cell_measurement_theta_max       30.5
 
_exptl_crystal_description        needle
_exptl_crystal_colour             black
_exptl_crystal_density_meas       ? 
_exptl_crystal_density_method     ?              
_exptl_crystal_density_diffrn     3.187          
_exptl_crystal_F_000              7040
_exptl_transmission_factor_min    ?                                             
_exptl_transmission_factor_max    ?                                             
_exptl_crystal_size_max           0.150
_exptl_crystal_size_mid           0.020
_exptl_crystal_size_min           0.020
_exptl_absorpt_coefficient_mu     22.142
_shelx_estimated_absorpt_T_min    0.135
_shelx_estimated_absorpt_T_max    0.664
_exptl_absorpt_correction_type    'multi-scan'          
_exptl_absorpt_correction_T_min   0.120                 
_exptl_absorpt_correction_T_max   0.600                 
_exptl_absorpt_process_details    'Scala (Evans, 2006)' 
 
_exptl_special_details
;
 ?
;
 
_diffrn_ambient_temperature       100(2)
_diffrn_radiation_wavelength      0.80246
_diffrn_radiation_type            synchrotron        
_diffrn_source                    ?                                         
_diffrn_measurement_device_type   'Rayonix SX165 CCD' 
_diffrn_measurement_method        '/f scan'           
_diffrn_detector_area_resol_mean  ? 
_diffrn_reflns_number             16271
_diffrn_reflns_av_unetI/netI      0.1171
_diffrn_reflns_av_R_equivalents   0.1032
_diffrn_reflns_limit_h_min        -50
_diffrn_reflns_limit_h_max        50
_diffrn_reflns_limit_k_min        -58
_diffrn_reflns_limit_k_max        58
_diffrn_reflns_limit_l_min        -5
_diffrn_reflns_limit_l_max        5
_diffrn_reflns_theta_min          3.578
_diffrn_reflns_theta_max          30.852
_diffrn_reflns_theta_full         28.782
_diffrn_measured_fraction_theta_max   0.991
_diffrn_measured_fraction_theta_full  0.994
_diffrn_reflns_Laue_measured_fraction_max    0.991
_diffrn_reflns_Laue_measured_fraction_full   0.994
_diffrn_reflns_point_group_measured_fraction_max   0.993
_diffrn_reflns_point_group_measured_fraction_full  0.996
_reflns_number_total              4532
_reflns_number_gt                 4041
_reflns_threshold_expression      'I > 2\s(I)'
_reflns_Friedel_coverage          0.778
_reflns_Friedel_fraction_max      0.997
_reflns_Friedel_fraction_full     0.998
 
_reflns_special_details
;
 Reflections were merged by SHELXL according to the crystal
 class for the calculation of statistics and refinement.
 
 _reflns_Friedel_fraction is defined as the number of unique
 Friedel pairs measured divided by the number that would be
 possible theoretically, ignoring centric projections and
 systematic absences.
;
 
_computing_data_collection        'Marccd (Doyle, 2011)'         
_computing_cell_refinement        'iMosflm (Battye et al., 2011)'
_computing_data_reduction         'iMosflm'                      
_computing_structure_solution     'SHELXT (Sheldrick, 2015)'     
_computing_structure_refinement   'SHELXL (Sheldrick, 2015)'     
_computing_molecular_graphics     'SHELXTL (Sheldrick, 2015)'    
_computing_publication_material   'SHELXTL'                      
 
_refine_special_details
;
 Refined as a 2-component inversion twin.
;
_refine_ls_structure_factor_coef  Fsqd
_refine_ls_matrix_type            full
_refine_ls_weighting_scheme       calc
_refine_ls_weighting_details
'w=1/[\s^2^(Fo^2^)] where P=(Fo^2^+2Fc^2^)/3'
_atom_sites_solution_primary      difmap
_atom_sites_solution_secondary    difmap
_atom_sites_solution_hydrogens    geom
_refine_ls_hydrogen_treatment     constr
_refine_ls_extinction_method      SHELXL
_refine_ls_extinction_coef        0.000062(6)
_refine_ls_extinction_expression
 'Fc^*^=kFc[1+0.001xFc^2^\l^3^/sin(2\q)]^-1/4^'
_refine_ls_abs_structure_details
;
 Refined as an inversion twin.
;
_refine_ls_abs_structure_Flack    0.468(11)
_chemical_absolute_configuration  unk
_refine_ls_number_reflns          4532
_refine_ls_number_parameters      168
_refine_ls_number_restraints      1
_refine_ls_R_factor_all           0.0480
_refine_ls_R_factor_gt            0.0445
_refine_ls_wR_factor_ref          0.1036
_refine_ls_wR_factor_gt           0.1014
_refine_ls_goodness_of_fit_ref    0.849
_refine_ls_restrained_S_all       0.848
_refine_ls_shift/su_max           0.001
_refine_ls_shift/su_mean          0.000
 
loop_
 _atom_site_label
 _atom_site_type_symbol
 _atom_site_fract_x
 _atom_site_fract_y
 _atom_site_fract_z
 _atom_site_U_iso_or_equiv
 _atom_site_adp_type
 _atom_site_occupancy
 _atom_site_site_symmetry_order  
 _atom_site_calc_flag
 _atom_site_refinement_flags_posn
 _atom_site_refinement_flags_adp
 _atom_site_refinement_flags_occupancy
 _atom_site_disorder_assembly
 _atom_site_disorder_group
Pb1 Pb 0.50292(2) 0.40967(2) 0.94714(19) 0.01352(17) Uani 1 1 d . . . . .
Pb2 Pb 0.5000 0.5000 0.4486(3) 0.01271(18) Uani 1 2 d S T P . .
I1 I 0.45622(2) 0.44120(2) 0.4512(2) 0.0134(2) Uani 1 1 d . . . . .
I2 I 0.55096(2) 0.38745(2) 1.4525(2) 0.0151(2) Uani 1 1 d . . . . .
I3 I 0.46219(2) 0.35444(2) 0.9116(3) 0.0184(2) Uani 1 1 d . . . . .
I4 I 0.54776(2) 0.47415(2) -0.0500(2) 0.0131(2) Uani 1 1 d . . . . .
N1 N 0.7169(3) 0.5139(3) 0.786(3) 0.025(3) Uani 1 1 d . . . . .
H1A H 0.7059 0.5121 0.6205 0.030 Uiso 1 1 calc R U . . .
H1B H 0.7172 0.4993 0.9114 0.030 Uiso 1 1 calc R U . . .
N2 N 0.7345(3) 0.5612(2) 0.682(3) 0.016(2) Uani 1 1 d . . . . .
H2A H 0.7242 0.5614 0.5120 0.019 Uiso 1 1 calc R U . . .
H2B H 0.7458 0.5766 0.7398 0.019 Uiso 1 1 calc R U . . .
C1 C 0.7329(4) 0.5383(3) 0.845(3) 0.019(3) Uani 1 1 d . . . . .
H1 H 0.7444 0.5392 1.0264 0.023 Uiso 1 1 calc R U . . .
O1 O 0.6951(3) 0.4808(2) 0.260(3) 0.028(3) Uani 1 1 d . . . . .
N3 N 0.6489(3) 0.4518(3) 0.306(3) 0.029(3) Uani 1 1 d . . . . .
C2 C 0.6789(3) 0.4573(3) 0.205(4) 0.025(3) Uani 1 1 d . . . . .
H2 H 0.6892 0.4430 0.0849 0.030 Uiso 1 1 calc R U . . .
C3 C 0.6314(4) 0.4714(5) 0.505(6) 0.054(5) Uani 1 1 d . . . . .
H3A H 0.6268 0.4612 0.6890 0.080 Uiso 1 1 calc R U . . .
H3B H 0.6104 0.4776 0.4161 0.080 Uiso 1 1 calc R U . . .
H3C H 0.6452 0.4886 0.5447 0.080 Uiso 1 1 calc R U . . .
C4 C 0.6337(4) 0.4236(4) 0.226(6) 0.054(5) Uani 1 1 d . . . . .
H4A H 0.6141 0.4271 0.1037 0.080 Uiso 1 1 calc R U . . .
H4B H 0.6270 0.4132 0.4034 0.080 Uiso 1 1 calc R U . . .
H4C H 0.6498 0.4118 0.1175 0.080 Uiso 1 1 calc R U . . .
O2 O 0.3161(3) 0.4461(2) 0.281(3) 0.026(3) Uani 1 1 d . . . . .
N4 N 0.3620(3) 0.4309(2) 0.036(3) 0.019(3) Uani 1 1 d . . . . .
C5 C 0.3351(3) 0.4264(3) 0.194(4) 0.021(3) Uani 1 1 d . . . . .
H5 H 0.3299 0.4068 0.2458 0.025 Uiso 1 1 calc R U . . .
C6 C 0.3714(4) 0.4594(3) -0.071(5) 0.031(4) Uani 1 1 d . . . . .
H6A H 0.3708 0.4594 -0.2846 0.047 Uiso 1 1 calc R U . . .
H6B H 0.3939 0.4641 -0.0042 0.047 Uiso 1 1 calc R U . . .
H6C H 0.3558 0.4741 0.0042 0.047 Uiso 1 1 calc R U . . .
C7 C 0.3828(4) 0.4058(3) -0.059(4) 0.027(3) Uani 1 1 d . . . . .
H7A H 0.3762 0.3882 0.0489 0.040 Uiso 1 1 calc R U . . .
H7B H 0.4062 0.4101 -0.0206 0.040 Uiso 1 1 calc R U . . .
H7C H 0.3796 0.4025 -0.2688 0.040 Uiso 1 1 calc R U . . .
 
loop_
 _atom_site_aniso_label
 _atom_site_aniso_U_11
 _atom_site_aniso_U_22
 _atom_site_aniso_U_33
 _atom_site_aniso_U_23
 _atom_site_aniso_U_13
 _atom_site_aniso_U_12
Pb1 0.0166(3) 0.0092(2) 0.0147(3) 0.0005(3) 0.0001(3) 0.00030(17)
Pb2 0.0157(4) 0.0087(3) 0.0137(4) 0.000 0.000 0.0004(2)
I1 0.0138(4) 0.0102(3) 0.0162(5) 0.0001(4) 0.0007(5) -0.0003(3)
I2 0.0147(4) 0.0139(4) 0.0168(5) 0.0011(4) 0.0013(5) 0.0024(3)
I3 0.0205(4) 0.0118(4) 0.0230(5) 0.0013(4) 0.0015(5) -0.0027(3)
I4 0.0134(4) 0.0113(3) 0.0145(4) 0.0007(4) -0.0004(5) 0.0016(3)
N1 0.032(7) 0.021(6) 0.022(7) -0.011(5) -0.001(6) -0.007(5)
N2 0.018(5) 0.014(5) 0.016(6) -0.006(5) 0.000(7) -0.006(4)
C1 0.022(7) 0.016(6) 0.018(8) -0.009(5) 0.003(6) 0.009(6)
O1 0.030(6) 0.018(5) 0.036(8) 0.000(5) -0.002(6) -0.009(4)
N3 0.019(7) 0.024(6) 0.045(9) 0.011(6) 0.014(6) 0.007(5)
C2 0.022(7) 0.014(6) 0.039(10) -0.011(8) 0.004(9) -0.007(5)
C3 0.015(6) 0.068(9) 0.078(13) 0.031(10) -0.006(8) -0.013(6)
C4 0.015(6) 0.068(9) 0.078(13) 0.031(10) -0.006(8) -0.013(6)
O2 0.023(6) 0.018(5) 0.037(7) -0.001(4) 0.001(5) 0.006(4)
N4 0.018(6) 0.010(5) 0.030(7) 0.002(4) 0.010(6) -0.001(4)
C5 0.027(7) 0.013(6) 0.023(8) -0.006(6) -0.001(9) -0.004(5)
C6 0.022(7) 0.019(6) 0.053(12) 0.014(9) -0.001(10) -0.004(5)
C7 0.023(7) 0.019(7) 0.038(10) -0.014(7) 0.003(9) 0.005(5)
 
_geom_special_details
;
 All esds (except the esd in the dihedral angle between two l.s. planes)
 are estimated using the full covariance matrix.  The cell esds are taken
 into account individually in the estimation of esds in distances, angles
 and torsion angles; correlations between esds in cell parameters are only
 used when they are defined by crystal symmetry.  An approximate (isotropic)
 treatment of cell esds is used for estimating esds involving l.s. planes.
;
 
loop_
 _geom_bond_atom_site_label_1
 _geom_bond_atom_site_label_2
 _geom_bond_distance
 _geom_bond_site_symmetry_2
 _geom_bond_publ_flag
Pb1 I3 3.0143(10) . ?
Pb1 I2 3.1452(13) 1_554 ?
Pb1 I2 3.1808(13) . ?
Pb1 I1 3.2807(13) . ?
Pb1 I1 3.3062(13) 1_556 ?
Pb2 I4 3.2090(14) 2_665 ?
Pb2 I4 3.2090(14) . ?
Pb2 I1 3.2133(9) 2_665 ?
Pb2 I1 3.2134(9) . ?
Pb2 I4 3.2181(14) 1_556 ?
Pb2 I4 3.2181(14) 2_666 ?
I1 Pb1 3.3064(13) 1_554 ?
I2 Pb1 3.1452(13) 1_556 ?
I4 Pb2 3.2181(14) 1_554 ?
N1 C1 1.320(18) . ?
N1 H1A 0.8800 . ?
N1 H1B 0.8800 . ?
N2 C1 1.288(19) . ?
N2 H2A 0.8800 . ?
N2 H2B 0.8800 . ?
C1 H1 0.9500 . ?
O1 C2 1.281(15) . ?
N3 C2 1.314(18) . ?
N3 C3 1.46(3) . ?
N3 C4 1.47(2) . ?
C2 H2 0.9500 . ?
C3 H3A 0.9800 . ?
C3 H3B 0.9800 . ?
C3 H3C 0.9800 . ?
C4 H4A 0.9800 . ?
C4 H4B 0.9800 . ?
C4 H4C 0.9800 . ?
O2 C5 1.248(16) . ?
N4 C5 1.317(19) . ?
N4 C6 1.442(17) . ?
N4 C7 1.485(16) . ?
C5 H5 0.9500 . ?
C6 H6A 0.9800 . ?
C6 H6B 0.9800 . ?
C6 H6C 0.9800 . ?
C7 H7A 0.9800 . ?
C7 H7B 0.9800 . ?
C7 H7C 0.9800 . ?
 
loop_
 _geom_angle_atom_site_label_1
 _geom_angle_atom_site_label_2
 _geom_angle_atom_site_label_3
 _geom_angle
 _geom_angle_site_symmetry_1
 _geom_angle_site_symmetry_3
 _geom_angle_publ_flag
I3 Pb1 I2 91.38(3) . 1_554 ?
I3 Pb1 I2 95.83(3) . . ?
I2 Pb1 I2 92.77(3) 1_554 . ?
I3 Pb1 I1 91.13(3) . . ?
I2 Pb1 I1 89.68(4) 1_554 . ?
I2 Pb1 I1 172.56(3) . . ?
I3 Pb1 I1 95.42(3) . 1_556 ?
I2 Pb1 I1 172.89(3) 1_554 1_556 ?
I2 Pb1 I1 88.62(4) . 1_556 ?
I1 Pb1 I1 88.10(3) . 1_556 ?
I4 Pb2 I4 89.26(5) 2_665 . ?
I4 Pb2 I1 91.27(3) 2_665 2_665 ?
I4 Pb2 I1 89.02(3) . 2_665 ?
I4 Pb2 I1 89.02(3) 2_665 . ?
I4 Pb2 I1 91.27(3) . . ?
I1 Pb2 I1 179.59(7) 2_665 . ?
I4 Pb2 I4 179.84(4) 2_665 1_556 ?
I4 Pb2 I4 90.90(2) . 1_556 ?
I1 Pb2 I4 88.73(3) 2_665 1_556 ?
I1 Pb2 I4 90.97(3) . 1_556 ?
I4 Pb2 I4 90.90(2) 2_665 2_666 ?
I4 Pb2 I4 179.84(4) . 2_666 ?
I1 Pb2 I4 90.97(3) 2_665 2_666 ?
I1 Pb2 I4 88.73(3) . 2_666 ?
I4 Pb2 I4 88.94(5) 1_556 2_666 ?
Pb2 I1 Pb1 93.24(3) . . ?
Pb2 I1 Pb1 92.93(3) . 1_554 ?
Pb1 I1 Pb1 88.10(3) . 1_554 ?
Pb1 I2 Pb1 92.77(3) 1_556 . ?
Pb2 I4 Pb2 90.89(2) . 1_554 ?
C1 N1 H1A 120.0 . . ?
C1 N1 H1B 120.0 . . ?
H1A N1 H1B 120.0 . . ?
C1 N2 H2A 120.0 . . ?
C1 N2 H2B 120.0 . . ?
H2A N2 H2B 120.0 . . ?
N2 C1 N1 126.4(15) . . ?
N2 C1 H1 116.8 . . ?
N1 C1 H1 116.8 . . ?
C2 N3 C3 122.9(14) . . ?
C2 N3 C4 117.6(14) . . ?
C3 N3 C4 119.4(15) . . ?
O1 C2 N3 124.1(14) . . ?
O1 C2 H2 118.0 . . ?
N3 C2 H2 118.0 . . ?
N3 C3 H3A 109.5 . . ?
N3 C3 H3B 109.5 . . ?
H3A C3 H3B 109.5 . . ?
N3 C3 H3C 109.5 . . ?
H3A C3 H3C 109.5 . . ?
H3B C3 H3C 109.5 . . ?
N3 C4 H4A 109.5 . . ?
N3 C4 H4B 109.5 . . ?
H4A C4 H4B 109.5 . . ?
N3 C4 H4C 109.5 . . ?
H4A C4 H4C 109.5 . . ?
H4B C4 H4C 109.5 . . ?
C5 N4 C6 122.8(12) . . ?
C5 N4 C7 120.1(11) . . ?
C6 N4 C7 116.9(13) . . ?
O2 C5 N4 124.4(12) . . ?
O2 C5 H5 117.8 . . ?
N4 C5 H5 117.8 . . ?
N4 C6 H6A 109.5 . . ?
N4 C6 H6B 109.5 . . ?
H6A C6 H6B 109.5 . . ?
N4 C6 H6C 109.5 . . ?
H6A C6 H6C 109.5 . . ?
H6B C6 H6C 109.5 . . ?
N4 C7 H7A 109.5 . . ?
N4 C7 H7B 109.5 . . ?
H7A C7 H7B 109.5 . . ?
N4 C7 H7C 109.5 . . ?
H7A C7 H7C 109.5 . . ?
H7B C7 H7C 109.5 . . ?
 
loop_
 _geom_torsion_atom_site_label_1
 _geom_torsion_atom_site_label_2
 _geom_torsion_atom_site_label_3
 _geom_torsion_atom_site_label_4
 _geom_torsion
 _geom_torsion_site_symmetry_1
 _geom_torsion_site_symmetry_2
 _geom_torsion_site_symmetry_3
 _geom_torsion_site_symmetry_4
 _geom_torsion_publ_flag
C3 N3 C2 O1 -3(3) . . . . ?
C4 N3 C2 O1 -179.5(17) . . . . ?
C6 N4 C5 O2 -4(3) . . . . ?
C7 N4 C5 O2 -179.4(16) . . . . ?
 
loop_
 _geom_hbond_atom_site_label_D 
 _geom_hbond_atom_site_label_H 
 _geom_hbond_atom_site_label_A 
 _geom_hbond_distance_DH 
 _geom_hbond_distance_HA 
 _geom_hbond_distance_DA 
 _geom_hbond_angle_DHA 
 _geom_hbond_site_symmetry_A 
N1 H1A O1  0.88 2.23 2.976(17) 142.6 .
N1 H1B O1  0.88 2.01 2.786(18) 146.1 1_556
N2 H2A O2  0.88 1.97 2.760(17) 149.2 2_665
N2 H2B I3  0.88 2.86 3.651(12) 149.8 4_655
 
_refine_diff_density_max    3.081
_refine_diff_density_min   -2.235
_refine_diff_density_rms    0.348

_shelxl_version_number 2013-4

_shelx_res_file
;
TITL FAPbI_DMF2 in Fdd2
CELL 0.80246  40.2001  45.7202   4.5800  90.000  90.000  90.000
ZERR    8.00   0.0080   0.0091   0.0009   0.000   0.000   0.000
LATT -4
SYMM -X, -Y, +Z
SYMM 0.25+X, 0.25-Y, 0.25+Z
SYMM 0.25-X, 0.25+Y, 0.25+Z
SFAC C H N O I Pb
DISP C 0.005 0.002 15.071
DISP H -0 0 0.629
DISP N 0.009 0.004 26.694
DISP O 0.015 0.008 45.138
DISP I -0.2582 2.2555 10748.787
DISP Pb -7.4040 10.6371 49287.003
UNIT 112 304 64 32 64 24
TEMP -173.0
SIZE 0.15 0.02 0.02

OMIT     8  34  -2
OMIT     1   1  -1
OMIT    12  34  -2
OMIT     2  42  -4
OMIT     3  29  -5
OMIT    23  51  -1
OMIT     7  29  -5
OMIT    14   0  -2
OMIT     6  58   0
OMIT    19  53  -1
OMIT     3  29   5
OMIT    35  41   1
OMIT     4  54  -2
OMIT    21  43  -3
OMIT     1  27  -5
OMIT    22  52   0
OMIT    27  39  -3
OMIT    48   4  -2
OMIT     1   1   1
OMIT     3   3  -1
OMIT    48  20   0
OMIT     5  29  -5
OMIT    18  54   0
OMIT    37  39   1
OMIT    42  32   0
OMIT     9  27   5
OMIT     4  24   4
OMIT    19  53   1
OMIT    26  46  -2
OMIT    13  51   1
OMIT    25  49  -1
OMIT    14   0   2
OMIT    10  32   0
OMIT    14   2   0
OMIT     8  54  -2
OMIT     6  42  -4
OMIT    50  12   0
OMIT    35  41  -1
OMIT    19   7   3
L.S. 12
BOND $H
ACTA
CONF
TWIN
HTAB N1 O1
EQIV $1 -x+1, -y+1, z
HTAB N1 O2_$1
EQIV $2 x, y, z+1
HTAB N1 O1_$2
HTAB N2 O2_$1
EQIV $3 -x+5/4, y+1/4, z+1/4
HTAB N2 I3_$3
EADP C3 C4

WGHT    0.000000
EXTI    0.000062
BASF   0.46801
FVAR       0.03813
PB1   6    0.502925    0.409673    0.947138    11.00000    0.01660    0.00923 =
         0.01472    0.00048    0.00007    0.00030
PB2   6    0.500000    0.500000    0.448649    10.50000    0.01569    0.00872 =
         0.01373    0.00000    0.00000    0.00041
I1    5    0.456218    0.441197    0.451158    11.00000    0.01377    0.01015 =
         0.01621    0.00011    0.00072   -0.00034
I2    5    0.550958    0.387455    1.452484    11.00000    0.01469    0.01389 =
         0.01684    0.00113    0.00125    0.00244
I3    5    0.462188    0.354436    0.911570    11.00000    0.02048    0.01185 =
         0.02298    0.00133    0.00150   -0.00268
I4    5    0.547760    0.474152   -0.049958    11.00000    0.01338    0.01132 =
         0.01453    0.00073   -0.00039    0.00164
N1    3    0.716886    0.513857    0.785782    11.00000    0.03180    0.02117 =
         0.02196   -0.01141   -0.00079   -0.00710
AFIX  93
H1A   2    0.705903    0.512098    0.620504    11.00000   -1.20000
H1B   2    0.717185    0.499294    0.911386    11.00000   -1.20000
AFIX   0
N2    3    0.734502    0.561214    0.681758    11.00000    0.01782    0.01421 =
         0.01610   -0.00601    0.00050   -0.00552
AFIX  93
H2A   2    0.724250    0.561437    0.512007    11.00000   -1.20000
H2B   2    0.745840    0.576619    0.739763    11.00000   -1.20000
AFIX   0
C1    1    0.732912    0.538342    0.845294    11.00000    0.02240    0.01579 =
         0.01821   -0.00866    0.00264    0.00931
AFIX  43
H1    2    0.744391    0.539173    1.026412    11.00000   -1.20000
AFIX   0
O1    4    0.695105    0.480810    0.259693    11.00000    0.02968    0.01777 =
         0.03612   -0.00027   -0.00166   -0.00881
N3    3    0.648949    0.451752    0.306164    11.00000    0.01932    0.02426 =
         0.04470    0.01118    0.01408    0.00714
C2    1    0.678902    0.457307    0.205424    11.00000    0.02212    0.01434 =
         0.03939   -0.01111    0.00420   -0.00707
AFIX  43
H2    2    0.689170    0.443008    0.084902    11.00000   -1.20000
AFIX   0
C3    1    0.631380    0.471402    0.505442    11.00000    0.01480    0.06752 =
         0.07830    0.03074   -0.00557   -0.01252
AFIX 137
H3A   2    0.626767    0.461164    0.689016    11.00000   -1.50000
H3B   2    0.610380    0.477606    0.416136    11.00000   -1.50000
H3C   2    0.645219    0.488604    0.544702    11.00000   -1.50000
AFIX   0
C4    1    0.633695    0.423613    0.225994    11.00000    0.01480    0.06752 =
         0.07830    0.03074   -0.00557   -0.01252
AFIX 137
H4A   2    0.614101    0.427148    0.103678    11.00000   -1.50000
H4B   2    0.626995    0.413175    0.403393    11.00000   -1.50000
H4C   2    0.649832    0.411777    0.117529    11.00000   -1.50000
AFIX   0
O2    4    0.316135    0.446130    0.281461    11.00000    0.02287    0.01806 =
         0.03683   -0.00075    0.00117    0.00610
N4    3    0.361989    0.430872    0.035943    11.00000    0.01773    0.00967 =
         0.02973    0.00184    0.01035   -0.00066
C5    1    0.335132    0.426373    0.194356    11.00000    0.02748    0.01282 =
         0.02310   -0.00572   -0.00051   -0.00414
AFIX  43
H5    2    0.329863    0.406783    0.245773    11.00000   -1.20000
AFIX   0
C6    1    0.371353    0.459391   -0.070700    11.00000    0.02249    0.01898 =
         0.05264    0.01402   -0.00054   -0.00416
AFIX 137
H6A   2    0.370752    0.459420   -0.284609    11.00000   -1.50000
H6B   2    0.393904    0.464067   -0.004169    11.00000   -1.50000
H6C   2    0.355765    0.474063    0.004219    11.00000   -1.50000
AFIX   0
C7    1    0.382753    0.405769   -0.059227    11.00000    0.02342    0.01858 =
         0.03816   -0.01450    0.00282    0.00486
AFIX 137
H7A   2    0.376169    0.388203    0.048917    11.00000   -1.50000
H7B   2    0.406227    0.410070   -0.020634    11.00000   -1.50000
H7C   2    0.379569    0.402464   -0.268786    11.00000   -1.50000

AFIX   0
HKLF 4

REM  FAPbI_DMF2 in Fdd2
REM R1 =  0.0445 for    4041 Fo > 4sig(Fo)  and  0.0480 for all    4532 data
REM    168 parameters refined using      1 restraints

END

WGHT      0.0000      0.0000

REM Highest difference peak  3.081,  deepest hole -2.235,  1-sigma level  0.348
Q1    1   0.7520  0.5730  0.7016  11.00000  0.05    1.87
Q2    1   0.5443  0.4433 -0.0830  11.00000  0.05    1.65
Q3    1   0.4793  0.5020  0.5983  11.00000  0.05    1.63
Q4    1   0.7197  0.4837  0.1824  11.00000  0.05    1.55
Q5    1   0.5001  0.5115  0.2003  11.00000  0.05    1.51
Q6    1   0.4795  0.4182  1.0885  11.00000  0.05    1.50
Q7    1   0.5010  0.4232  0.7099  11.00000  0.05    1.46
Q8    1   0.5017  0.4250  1.1759  11.00000  0.05    1.41
Q9    1   0.5280  0.4117  1.0535  11.00000  0.05    1.39
Q10   1   0.5803  0.3857  1.5283  11.00000  0.05    1.36
Q11   1   0.4796  0.4996  0.2849  11.00000  0.05    1.33
Q12   1   0.5003  0.3957  1.1980  11.00000  0.05    1.33
Q13   1   0.4584  0.4700  0.4115  11.00000  0.05    1.32
Q14   1   0.5520  0.3742  1.6935  11.00000  0.05    1.31
Q15   1   0.5023  0.4012  0.6878  11.00000  0.05    1.28
Q16   1   0.5298  0.4103  0.8432  11.00000  0.05    1.28
Q17   1   0.5204  0.4275  0.7902  11.00000  0.05    1.26
Q18   1   0.4713  0.4130  1.0292  11.00000  0.05    1.23
Q19   1   0.5794  0.3820  1.3606  11.00000  0.05    1.22
Q20   1   0.5031  0.5145  0.6762  11.00000  0.05    1.20
;
_shelx_res_checksum   56441

_shelx_hkl_file
;
   0   8   0  207.37   34.46
   0  -8   0  171.11   34.29
   0  10   0    3.23    4.05
   0 -10   0    2.77    4.06
   0  12   0  350.29   59.47
   0 -12   0  311.78   59.32
   0  14   0    4.74    4.42
   0 -14   0   -1.41    4.35
   0  16   0  459.23   74.77
   0 -16   0  378.82   74.60
   0  18   0    3.77    4.52
   0 -18   0    0.39    4.56
   0  20   0 1150.26  217.16
   0 -20   0 1296.68  217.10
   0 -20   0 1224.20  217.05
   0  22   0    0.92    4.75
   0 -22   0    3.93    4.99
   0 -22   0    2.25    5.42
   0  24   0 1038.12  171.54
   0 -24   0  947.92  171.40
   0 -24   0  921.70  171.27
   0 -26   0   -1.49    4.14
   0  26   0    0.44    4.91
   0 -26   0    2.62    5.29
   0 -28   0    8.67    5.26
   0  28   0   11.27    5.80
   0 -28   0    7.81    6.16
   0  30   0    2.56    5.36
   0 -30   0    1.90    5.76
   0 -30   0   -1.83    6.07
   0 -32   0 1106.11  191.82
   0 -32   0 1055.08  191.56
   0 -34   0   -4.01   10.96
   0 -34   0    5.60    7.80
   0 -36   0 2740.21  369.63
   0 -36   0 2894.64  497.68
   0 -38   0    0.46   11.23
   0 -38   0    0.26    8.07
   0 -40   0   86.08   20.44
   0 -40   0   84.75   18.91
   0 -42   0   11.30   12.10
   0 -42   0   -2.00    8.91
   0 -44   0 1180.43  203.27
   0 -44   0 1103.69  203.04
   0 -46   0   12.71    9.98
   0 -46   0    0.54   10.14
   0 -48   0   75.68   19.75
   0 -48   0   91.40   20.23
   0 -50   0    0.05    8.24
   0 -50   0   10.76   10.84
   0 -52   0   60.55   22.54
   0 -52   0   66.97   19.81
   0 -54   0    3.79   13.32
   0 -54   0   -7.88   15.29
   0 -56   0  238.68   53.40
   0 -56   0  285.06   52.11
   0 -58   0   -6.24   20.75
   0 -58   0   15.09   17.05
   2   8   0    6.25    3.87
  -2  -8   0    6.75    4.11
   2   8   0    5.35    4.55
   2   8   0    9.78    3.94
   2  10   0 1003.05  180.98
  -2 -10   0  994.21  180.93
  -2 -10   0 1068.85  181.08
   2  10   0 1010.80  181.01
   2  10   0 1044.74  181.12
  -2 -12   0 3219.95  428.14
   2  12   0 3403.23  578.13
  -2 -12   0 3291.47  578.06
   2  12   0 3235.69  578.13
   2  12   0 3250.73  578.21
   2  14   0  220.78   39.60
  -2 -14   0  201.71   39.56
  -2 -14   0  226.29   39.66
   2  14   0  216.14   39.64
   2  14   0  220.43   39.64
  -2 -16   0  105.74   17.99
   2  16   0  103.42   17.91
   2  16   0  120.66   21.12
  -2 -16   0  110.12   21.05
   2  16   0  108.18   20.99
   2  18   0   55.75   10.53
  -2 -18   0   38.67   10.40
  -2 -18   0   50.31   10.26
   2  18   0   48.94   10.46
   2  18   0   35.45   10.29
   2  20   0   26.56    6.90
  -2 -20   0   21.64    7.07
  -2 -20   0   13.17    6.53
   2  20   0   21.65    6.93
   2  20   0   22.11    6.87
   2  22   0  395.63   53.34
  -2 -22   0  325.01   52.83
   2  22   0  410.24   68.31
   2  22   0  389.65   68.25
   2  24   0  811.06  125.65
  -2 -24   0  649.84  125.39
   2  24   0  686.96  125.51
   2  24   0  683.68  125.47
   2  26   0   45.00   10.10
   2  26   0   48.24   10.98
  -2 -26   0   46.32   11.26
   2  26   0   48.83   11.43
  -2 -28   0   18.39    6.96
   2  28   0   25.32    7.32
  -2 -28   0   18.34    7.46
   2  28   0   22.77    8.00
   2  28   0   24.85    7.99
   2  30   0   88.45   16.77
  -2 -30   0   74.77   16.83
  -2 -30   0   77.19   16.96
   2  30   0   80.95   17.08
   2  30   0   83.83   17.29
   2  32   0   31.50    9.74
  -2 -32   0   44.17   11.97
  -2 -32   0   34.29   10.60
   2  32   0   28.04   12.39
   2  32   0   36.60   10.56
   2  34   0 7734.82 1018.76
  -2 -34   0 7982.35 1018.66
  -2 -34   0 7793.52 1380.17
   2  34   0 7859.04 1380.18
   2  34   0 7839.76 1380.16
  -2 -36   0  296.58   56.55
  -2 -36   0  313.76   55.97
   2  36   0  314.80   56.32
   2  36   0  291.86   55.93
  -2 -38   0  125.58   25.15
  -2 -38   0  112.80   23.60
   2  38   0  126.04   24.51
   2  38   0   97.01   23.51
  -2 -40   0   -1.46   11.73
  -2 -40   0    6.73    9.04
   2  40   0   -0.17    9.71
   2  40   0   11.46    8.77
   2  42   0  607.33   91.01
  -2 -42   0  707.33  119.54
  -2 -42   0  744.97  119.28
   2  42   0  598.70  118.93
  -2 -44   0   11.11   12.98
  -2 -44   0   11.88   10.86
   2  44   0   18.00    9.78
   2  44   0   12.32    9.81
  -2 -46   0  603.55  107.03
  -2 -46   0  623.93  106.74
   2  46   0  540.54  106.48
   2  46   0  594.88  106.58
  -2 -48   0  365.01   68.32
  -2 -48   0  372.74   68.25
   2  48   0  372.77   68.08
   2  48   0  365.60   68.03
  -2 -50   0  141.39   29.95
  -2 -50   0  150.96   30.42
   2  50   0  134.59   29.83
   2  50   0  155.07   30.05
  -2 -52   0    6.11   12.54
   2  52   0   -0.97   10.23
  -2 -52   0    9.41   14.92
   2  52   0   -1.46   17.27
  -2 -54   0 1024.22  188.52
  -2 -54   0 1132.14  188.27
   2  54   0 1053.65  188.31
   2  54   0  989.86  187.88
   2  56   0   11.19   13.25
  -2 -56   0    6.66   19.56
  -2 -56   0    1.49   16.44
   2  56   0   -9.94   15.84
  -2 -58   0  405.59   76.11
  -2 -58   0  386.46   75.17
   2  58   0  384.76   75.23
   2  58   0  402.53   74.73
   4   6   0   42.87    8.01
  -4  -6   0   33.20    8.20
  -4  -6   0   32.88    8.31
   4   6   0   38.04    8.23
   4   8   0  722.19  133.06
  -4  -8   0  735.64  133.11
  -4  -8   0  714.87  133.17
   4   8   0  837.35  133.24
   4  10   0 1834.82  318.42
  -4 -10   0 1769.98  318.42
  -4 -10   0 1786.40  318.51
   4  10   0 1815.74  318.48
   4  10   0 1819.58  318.59
   4  12   0 1770.94  298.01
  -4 -12   0 1737.88  297.99
  -4 -12   0 1709.57  298.03
   4  12   0 1608.77  298.01
   4  12   0 1603.90  298.12
   4  14   0  467.18   81.72
  -4 -14   0  463.90   81.68
   4  14   0  445.84   81.71
   4  14   0  450.15   81.86
   4  16   0  165.33   31.78
  -4 -16   0  161.60   31.78
   4  16   0  169.50   31.85
   4  16   0  194.06   32.02
   4  18   0  236.57   37.81
   4  18   0  301.78   47.94
  -4 -18   0  264.69   47.91
   4  18   0  251.61   48.02
   4  20   0 1575.68  257.95
  -4 -20   0 1413.93  257.82
   4  20   0 1471.88  257.86
   4  20   0 1377.36  257.90
   4  22   0 1373.13  199.40
   4  22   0 1744.61  267.52
  -4 -22   0 1489.02  267.30
   4  22   0 1471.85  267.35
   4  24   0   26.01    7.50
  -4 -24   0   24.50    7.67
   4  24   0   21.21    7.72
   4  24   0   22.12    7.51
   4  26   0   34.20    8.07
  -4 -26   0   23.17    8.71
   4  26   0   31.41    8.82
   4  26   0   33.12    8.66
   4  28   0  117.86   20.74
  -4 -28   0   95.69   20.65
   4  28   0  107.52   20.71
   4  28   0   96.61   20.66
   4  30   0    6.94    5.52
  -4 -30   0    4.13    6.38
   4  30   0    0.77    9.45
   4  30   0    2.76    6.57
   4  32   0 1454.91  251.86
  -4 -32   0 1427.21  251.85
  -4 -32   0 1399.29  251.74
   4  32   0 1489.57  251.78
   4  32   0 1337.82  251.72
   4  34   0  334.53   53.53
   4  34   0  406.59   68.90
  -4 -34   0  371.68   69.22
  -4 -34   0  392.05   68.98
   4  34   0  394.41   68.94
   4  36   0 1071.51  182.45
  -4 -36   0 1118.62  182.62
  -4 -36   0  909.10  182.31
   4  36   0  983.64  182.30
   4  36   0 1057.86  182.36
   4  38   0   13.45    6.75
  -4 -38   0   20.79   11.16
  -4 -38   0   16.28   10.11
   4  38   0   10.81    9.05
   4  38   0   20.08    9.36
  -4 -40   0   70.06   18.34
  -4 -40   0   76.04   17.19
   4  40   0   74.35   16.71
   4  40   0   62.14   16.55
  -4 -42   0  245.45   41.01
  -4 -42   0  330.40   52.28
   4  42   0  260.24   51.23
   4  42   0  267.80   51.18
   4  44   0  629.50   90.80
  -4 -44   0  727.30  118.98
  -4 -44   0  639.49  118.49
   4  44   0  642.31  118.39
  -4 -46   0 2212.12  381.71
  -4 -46   0 2169.74  381.55
   4  46   0 2181.08  381.55
   4  46   0 2065.66  381.39
  -4 -48   0  114.28   23.18
  -4 -48   0   94.97   21.94
   4  48   0   75.96   21.25
   4  48   0   88.12   21.04
  -4 -50   0   18.39   14.85
  -4 -50   0   25.82   13.45
   4  50   0   24.17   12.21
   4  50   0   26.96   11.95
   4  52   0    7.68   11.00
  -4 -52   0    6.89   17.15
  -4 -52   0    6.41   15.46
   4  52   0   12.08   17.26
  -4 -54   0   51.10   20.94
  -4 -54   0   41.65   19.35
   4  54   0   45.80   20.48
   4  54   0   44.85   18.30
  -4 -56   0  459.98   86.28
  -4 -56   0  436.54   85.85
   4  56   0  482.63   85.92
   4  56   0  454.92   85.25
   4  58   0   35.16   15.72
  -4 -58   0   45.49   23.06
  -4 -58   0   51.32   21.01
   4  58   0   39.27   21.47
   6   0   0    3.82    3.48
  -6   0   0    2.04    3.05
   6   2   0 1146.06  201.97
  -6  -2   0 1138.24  201.97
  -6  -2   0 1222.32  202.13
   6   2   0 1073.39  202.09
   6   4   0  123.34   21.80
  -6  -4   0  114.71   21.77
  -6  -4   0  112.02   21.85
   6   4   0  116.08   21.75
   6   6   0  284.12   50.64
  -6  -6   0  277.78   50.82
  -6  -6   0  281.32   50.81
   6   6   0  283.21   50.75
   6   8   0  741.90  125.64
  -6  -8   0  687.95  125.65
  -6  -8   0  726.84  125.79
   6   8   0  675.12  125.73
   6  10   0 1436.10  259.05
  -6 -10   0 1459.66  259.15
  -6 -10   0 1480.75  259.16
   6  10   0 1497.97  259.21
  -6 -14   0  644.76  111.64
   6  14   0  760.22  111.88
   6  14   0  914.46  148.03
  -6 -14   0  932.39  148.12
   6  14   0  908.26  148.20
   6  16   0  439.02   77.24
  -6 -16   0  401.62   77.25
  -6 -16   0  365.44   77.16
   6  16   0  479.43   77.40
   6  16   0  478.98   77.42
   6  18   0  163.16   26.96
   6  18   0  179.64   32.76
  -6 -18   0  172.27   32.79
   6  18   0  191.01   32.92
   6  20   0   16.89    5.99
   6  20   0   14.42    6.12
  -6 -20   0   16.33    6.46
   6  20   0   19.24    6.49
   6  22   0 3853.98  702.60
  -6 -22   0 3918.84  702.56
   6  22   0 4111.24  702.62
   6  22   0 4077.72  702.75
   6  24   0 2063.36  334.17
  -6 -24   0 1852.67  334.04
   6  24   0 1884.69  334.08
   6  24   0 1770.32  334.11
   6  26   0    6.04    5.82
  -6 -26   0    7.32    6.31
   6  26   0    9.48    6.53
   6  26   0   15.14    5.87
   6  28   0    0.21    5.37
  -6 -28   0    1.70    5.89
   6  28   0    0.14    6.08
   6  28   0   -0.28    5.67
   6  30   0   36.15    9.66
  -6 -30   0   32.30    9.91
   6  30   0   41.90   10.71
   6  30   0   33.00   10.10
  -6 -32   0    1.33    6.39
   6  32   0    7.62    6.94
   6  32   0    7.60    7.88
   6  32   0    8.38    7.14
   6  34   0 1102.67  180.62
  -6 -34   0 1041.38  180.56
   6  34   0  966.72  180.51
   6  34   0  955.97  180.47
   6  36   0  671.23   98.78
  -6 -36   0  717.67   98.66
  -6 -36   0  755.34  129.78
   6  36   0  770.21  129.69
   6  36   0  708.85  129.53
   6  38   0  202.14   36.97
  -6 -38   0  214.39   37.90
  -6 -38   0  191.38   37.56
   6  38   0  188.58   37.38
   6  38   0  183.11   37.22
   6  40   0   -0.58    4.99
   6  40   0    8.28    6.76
  -6 -40   0   -0.77   10.74
  -6 -40   0    0.65    9.88
   6  40   0   10.31    8.65
   6  42   0  508.23   90.85
  -6 -42   0  515.15   91.38
  -6 -42   0  481.74   91.12
   6  42   0  506.90   91.10
   6  42   0  501.24   90.90
  -6 -44   0   36.67   14.88
  -6 -44   0   55.60   13.93
   6  44   0   18.81   12.63
   6  44   0   39.05   12.57
  -6 -46   0  387.13   73.75
  -6 -46   0  450.44   73.55
   6  46   0  399.70   73.19
   6  46   0  359.12   72.85
  -6 -48   0 1280.47  223.94
  -6 -48   0 1229.25  223.87
   6  48   0 1185.99  223.53
   6  48   0 1323.37  223.62
  -6 -50   0   73.50   20.22
  -6 -50   0   80.15   19.72
   6  50   0   72.12   18.14
   6  50   0   58.35   17.71
  -6 -52   0    1.80   11.14
  -6 -52   0   -5.32   18.47
   6  52   0   -7.58   16.77
   6  52   0    7.09   14.86
  -6 -54   0  496.20   73.00
  -6 -54   0  457.37   93.02
   6  54   0  517.64   92.91
   6  54   0  532.80   92.50
  -6 -56   0   19.81   19.79
  -6 -56   0   22.26   18.66
   6  56   0   32.61   19.42
   6  56   0   29.61   17.18
  -6 -58   0  122.36   32.25
   6  58   0  121.72   31.46
   8   0   0   30.65    7.66
  -8   0   0   36.86    7.67
   8   2   0   89.67   18.14
  -8  -2   0   92.54   18.59
  -8  -2   0  100.30   18.35
   8   2   0  104.31   18.24
   8   4   0   10.98    4.73
  -8  -4   0    8.25    5.63
  -8  -4   0    9.51    4.61
   8   4   0   13.73    4.91
   8   6   0   64.81   12.86
  -8  -6   0   61.88   12.26
  -8  -6   0   53.73   12.25
   8   6   0   56.45   12.13
   8   8   0   42.36    9.03
  -8  -8   0   33.77    9.50
  -8  -8   0   39.20    9.18
   8   8   0   45.04    9.19
   8  10   0 1213.57  208.74
  -8 -10   0 1237.00  208.85
  -8 -10   0 1104.03  208.89
   8  10   0 1160.84  208.83
  -8 -12   0 5583.29  981.09
  -8 -12   0 5354.29  981.13
   8  12   0 5793.80  981.18
   8  14   0  558.96   98.12
  -8 -14   0  572.92   98.24
  -8 -14   0  523.30   98.27
   8  14   0  546.09   98.25
   8  16   0  373.80   67.09
  -8 -16   0  363.10   67.28
  -8 -16   0  366.32   67.23
   8  16   0  389.69   67.26
   8  16   0  375.57   67.29
   8  18   0   43.85    9.27
  -8 -18   0   33.18    9.81
  -8 -18   0   36.86    9.28
   8  18   0   44.53    9.46
   8  18   0   32.53    9.11
   8  20   0  994.08  177.74
  -8 -20   0  955.71  177.85
   8  20   0  977.42  177.88
   8  20   0 1087.88  177.94
   8  22   0 1399.79  195.19
   8  22   0 1556.31  260.91
  -8 -22   0 1474.04  260.96
   8  22   0 1462.11  260.98
   8  24   0 4708.79  839.14
  -8 -24   0 4539.20  839.18
   8  24   0 4775.19  839.26
   8  24   0 5066.94  839.37
   8  26   0  158.30   26.02
  -8 -26   0  166.70   31.98
   8  26   0  185.09   32.10
   8  26   0  167.35   31.88
   8  28   0  215.12   37.79
  -8 -28   0  184.01   37.90
   8  28   0  205.54   37.97
   8  28   0  207.50   37.76
   8  30   0   62.57   14.04
  -8 -30   0   56.35   15.17
   8  30   0   60.83   14.89
   8  30   0   72.91   14.45
   8  32   0 1373.93  205.75
   8  32   0 1472.05  205.30
  -8 -32   0 1723.31  274.91
   8  32   0 1629.03  274.86
   8  34   0   93.38   17.45
  -8 -34   0   78.59   18.37
   8  34   0   76.43   17.93
   8  34   0   74.45   17.38
   8  36   0  537.25   90.76
  -8 -36   0  503.66   90.95
   8  36   0  533.81   90.92
   8  36   0  440.54   90.59
   8  38   0   -0.50    5.39
   8  38   0    1.91    6.97
  -8 -38   0    2.17    9.93
  -8 -38   0    1.99    9.85
   8  38   0    1.62    8.87
   8  40   0    3.29    7.10
  -8 -40   0   -0.13   10.92
  -8 -40   0    5.43   10.56
   8  40   0   12.39    9.48
   8  40   0    9.12    9.02
   8  42   0  336.61   61.20
  -8 -42   0  336.27   61.94
  -8 -42   0  318.59   61.88
   8  42   0  323.41   61.64
   8  42   0  349.35   61.43
   8  44   0  693.09  129.69
  -8 -44   0  702.06  130.19
  -8 -44   0  756.66  130.28
   8  44   0  758.82  130.03
   8  44   0  711.57  129.77
   8  46   0 1307.11  188.94
  -8 -46   0 1396.48  252.20
  -8 -46   0 1452.87  252.24
   8  46   0 1525.93  252.04
  -8 -48   0    1.44   13.72
  -8 -48   0    6.01   12.37
   8  48   0    0.95    9.99
   8  48   0    1.38    9.86
   8  50   0   24.05    9.41
  -8 -50   0   17.70   15.09
  -8 -50   0   16.68   13.60
   8  50   0   17.48   11.71
  -8 -52   0   16.42   18.77
  -8 -52   0    3.47   15.90
   8  52   0   -0.05   16.65
   8  52   0    2.12   15.03
  -8 -54   0   55.07   22.16
  -8 -54   0   34.32   18.03
   8  54   0   35.28   19.93
   8  54   0   45.00   18.20
  -8 -56   0  935.48  172.55
  -8 -56   0  841.08  171.99
   8  56   0 1004.00  172.35
   8  56   0 1029.15  172.18
  10   0   0    1.81    4.32
 -10   0   0    1.07    4.07
  10   2   0  108.50   19.51
 -10  -2   0   96.08   19.72
 -10  -2   0  105.21   19.76
  10   2   0  105.53   19.61
  10   4   0    5.66    4.18
 -10  -4   0    2.24    4.53
 -10  -4   0    4.44    4.41
  10   4   0    1.70    4.65
  10   6   0  132.50   21.97
 -10  -6   0  105.94   21.98
 -10  -6   0  114.58   22.01
  10   6   0  112.08   22.02
  10   8   0  647.39  104.17
 -10  -8   0  592.77  104.19
 -10  -8   0  502.83  104.26
  10   8   0  587.61  104.11
 -10 -10   0 5786.64 1005.60
 -10 -10   0 5663.92 1005.80
  10  10   0 5683.61 1005.65
  10  12   0  735.78  133.75
 -10 -12   0  824.79  133.91
 -10 -12   0  712.87  133.93
  10  12   0  740.38  133.87
  10  14   0  457.14   84.43
 -10 -14   0  512.23   84.72
 -10 -14   0  425.27   84.57
  10  14   0  500.57   84.64
  10  16   0   16.87    5.58
 -10 -16   0   15.88    6.18
 -10 -16   0    7.85    6.12
  10  16   0   12.14    6.17
  10  18   0  185.29   29.85
  10  18   0  177.79   30.03
  10  18   0  226.91   36.95
 -10 -18   0  201.87   37.06
 -10 -18   0  207.32   37.08
  10  20   0   49.53   11.27
  10  20   0   62.58   12.44
 -10 -20   0   59.47   12.90
 -10 -20   0   53.58   12.52
  10  20   0   62.09   12.62
  10  22   0 7878.12 1352.97
 -10 -22   0 7390.60 1353.06
  10  22   0 7663.94 1353.07
  10  22   0 7807.32 1353.13
  10  24   0    9.14    4.97
  10  24   0    5.51    5.54
 -10 -24   0    6.23    7.05
  10  24   0   10.67    5.72
  10  26   0    1.49    5.33
 -10 -26   0    3.41    6.89
  10  26   0    5.11    5.81
  10  26   0    1.79    5.67
  10  28   0   25.60    8.32
 -10 -28   0   20.41    9.61
  10  28   0   37.84   10.03
  10  28   0   31.78    9.44
  10  30   0  498.05   89.45
 -10 -30   0  523.45   89.82
  10  30   0  485.99   89.61
  10  30   0  484.74   89.50
  10  32   0   48.73   12.59
 -10 -32   0   50.66   14.08
  10  32   0   51.36   13.28
  10  32   0   50.65   12.55
  10  34   0  166.07   28.23
 -10 -34   0  134.82   28.87
  10  34   0  151.42   28.43
  10  34   0  124.92   27.93
  10  36   0  260.85   45.83
 -10 -36   0  251.41   46.39
  10  36   0  247.86   45.98
  10  36   0  223.91   45.66
  10  38   0  186.79   29.49
 -10 -38   0  193.79   36.59
  10  38   0  194.01   36.06
  10  38   0  174.69   35.71
  10  40   0   36.02   11.02
 -10 -40   0   43.03   13.64
  10  40   0   30.69   12.23
  10  40   0   38.89   11.36
 -10 -42   0  144.58   25.19
  10  42   0  131.60   24.23
  10  42   0  160.72   28.60
 -10 -42   0  139.26   29.79
  10  42   0  148.62   29.21
  10  44   0   10.99    6.68
 -10 -44   0   14.56   12.12
 -10 -44   0    9.96   12.11
  10  44   0   14.09   10.49
  10  44   0   18.39   10.10
 -10 -46   0  320.29   49.02
  10  46   0  318.80   48.38
  10  46   0  326.42   60.35
 -10 -46   0  328.60   61.31
  10  46   0  340.51   60.66
 -10 -48   0   83.15   23.61
 -10 -48   0   90.40   23.51
  10  48   0  107.74   21.95
  10  48   0  104.68   21.75
 -10 -50   0   52.40   17.74
 -10 -50   0   42.16   17.01
  10  50   0   46.59   18.76
  10  50   0   31.32   16.88
 -10 -52   0    2.44    9.39
  10  52   0    4.45   11.64
 -10 -52   0    3.55   19.33
  10  52   0   -3.38   14.92
 -10 -54   0  164.33   36.76
 -10 -54   0  129.53   33.50
  10  54   0  148.10   34.81
  10  54   0  187.41   34.50
 -10 -56   0   81.15   26.53
 -10 -56   0   69.73   21.54
  10  56   0   77.24   23.78
  10  56   0   75.60   22.85
  12   0   0 1935.35  354.06
 -12   0   0 2104.45  354.27
  12   2   0  249.86   45.97
 -12  -2   0  209.41   46.08
 -12  -2   0  278.39   46.28
  12   2   0  285.42   46.09
  12   4   0  122.13   20.16
 -12  -4   0   93.33   20.21
 -12  -4   0   90.89   20.16
  12   4   0  113.21   20.10
  12   6   0  299.98   48.14
 -12  -6   0  220.98   47.97
 -12  -6   0  262.80   48.21
  12   6   0  285.38   48.09
  12   8   0    8.83    5.73
 -12  -8   0    8.05    5.90
 -12  -8   0    9.73    5.30
  12   8   0   12.26    5.76
  12  10   0  715.36  120.91
 -12 -10   0  670.48  120.95
 -12 -10   0  660.08  121.07
  12  10   0  672.14  120.86
  12  12   0 5321.01  869.47
 -12 -12   0 4853.52  869.42
 -12 -12   0 4593.22  869.59
  12  12   0 4945.40  869.43
  12  14   0   18.95    6.58
 -12 -14   0   14.45    7.19
 -12 -14   0   13.29    6.49
  12  14   0   21.19    6.47
  12  16   0  107.65   18.44
 -12 -16   0   87.97   19.12
 -12 -16   0   83.36   18.65
  12  16   0   98.73   18.71
  12  18   0   11.65    5.46
 -12 -18   0   10.44    7.56
 -12 -18   0    5.97    6.03
  12  18   0   11.52    6.10
  12  20   0  561.00   94.55
 -12 -20   0  489.33   94.71
 -12 -20   0  511.50   94.67
  12  20   0  536.41   94.69
  12  20   0  543.57   94.74
  12  22   0    9.52    5.45
  12  22   0    8.73    5.89
 -12 -22   0   11.56    6.68
 -12 -22   0    7.83    5.89
  12  22   0   13.75    5.64
  12  24   0 6957.63 1234.55
 -12 -24   0 6529.43 1234.60
  12  24   0 7022.09 1234.65
  12  24   0 7570.52 1234.75
  12  26   0  370.08   66.94
 -12 -26   0  329.48   67.05
  12  26   0  406.08   67.08
  12  26   0  374.51   67.14
  12  28   0  531.57   92.03
 -12 -28   0  464.14   92.11
  12  28   0  541.34   92.24
  12  28   0  511.80   92.25
  12  30   0  124.57   23.44
 -12 -30   0  114.31   24.40
  12  30   0  117.64   23.67
  12  30   0  113.77   23.55
  12  32   0 1210.25  212.65
 -12 -32   0 1230.29  212.91
  12  32   0 1215.97  212.73
  12  32   0 1139.22  212.66
  12  34   0  468.45   87.24
 -12 -34   0  520.79   87.70
  12  34   0  500.35   87.37
  12  34   0  447.55   87.17
  12  36   0  577.32   81.48
  12  36   0  498.41   80.94
 -12 -36   0  639.52  106.15
  12  36   0  642.33  105.87
  12  38   0   13.42    8.56
 -12 -38   0   20.23   12.09
  12  38   0   21.67    9.85
  12  38   0   12.99    8.84
  12  40   0   21.85    9.45
 -12 -40   0   27.49   12.92
  12  40   0   24.03   10.21
  12  40   0   20.48    9.77
  12  42   0   37.63   10.84
 -12 -42   0   26.83   14.26
  12  42   0   39.72   11.78
  12  42   0   31.15   11.24
  12  44   0 1262.18  222.43
 -12 -44   0 1128.03  222.62
 -12 -44   0 1297.82  222.91
  12  44   0 1316.26  222.59
  12  44   0 1250.29  222.46
  12  46   0   86.96   20.52
 -12 -46   0   96.19   23.02
 -12 -46   0  101.22   23.57
  12  46   0   96.75   21.21
  12  46   0  105.42   21.61
  12  48   0   86.49   18.03
  12  48   0   79.81   19.69
 -12 -48   0   92.68   22.60
 -12 -48   0  111.81   23.04
  12  48   0   89.60   20.45
 -12 -50   0    6.02   11.16
 -12 -50   0   13.32   14.68
  12  50   0   25.92   16.59
  12  50   0   19.93   14.40
 -12 -52   0    2.72   20.17
 -12 -52   0    5.60   13.27
  12  52   0   10.68   16.30
  12  52   0    5.10   14.73
 -12 -54   0   18.71   21.03
 -12 -54   0   14.97   14.52
  12  54   0    5.19   17.09
  12  54   0   22.33   16.36
 -12 -56   0  770.30  121.26
 -12 -56   0  808.04  158.44
  12  56   0  958.16  158.04
  12  56   0  939.27  157.73
  14   0   0   -0.63    4.80
 -14   0   0   -0.03    4.65
  14   2   0  239.57   39.00
 -14  -2   0  192.38   39.20
 -14  -2   0  218.79   39.31
  14   2   0  203.90   38.99
  14   4   0   22.55    6.83
 -14  -4   0   24.75    7.03
 -14  -4   0   17.68    6.78
  14   4   0   22.19    6.50
  14   6   0  512.01   80.10
 -14  -6   0  423.46   80.00
 -14  -6   0  409.11   80.15
  14   6   0  448.92   80.13
  14   8   0  163.47   28.00
 -14  -8   0  132.31   27.87
 -14  -8   0  150.87   28.12
  14   8   0  155.63   28.18
  14  10   0 7176.00 1077.78
 -14 -10   0 5840.38 1077.63
 -14 -10   0 5547.50 1077.87
  14  10   0 5887.61 1077.75
 -14 -12   0 2068.82  321.70
  14  12   0 2734.62  433.22
 -14 -12   0 2421.65  433.23
  14  12   0 2529.96  433.17
  14  14   0    4.96    5.02
 -14 -14   0    5.84    6.07
 -14 -14   0    3.27    5.55
  14  14   0   -0.13    5.18
  14  16   0   12.95    6.08
 -14 -16   0   24.17    7.79
 -14 -16   0   15.55    6.81
  14  16   0   21.01    6.73
  14  18   0    8.67    5.16
 -14 -18   0    5.15    7.14
 -14 -18   0    7.49    5.83
  14  18   0    8.89    5.89
  14  20   0  384.91   66.71
 -14 -20   0  387.15   67.07
 -14 -20   0  326.61   66.86
  14  20   0  381.05   66.87
  14  22   0 2866.70  490.04
 -14 -22   0 2922.88  490.25
 -14 -22   0 2583.31  490.15
  14  22   0 2813.17  490.14
  14  22   0 2703.02  490.21
  14  24   0 2208.67  374.11
 -14 -24   0 2235.47  374.31
 -14 -24   0 2115.76  374.23
  14  24   0 1887.56  374.11
  14  24   0 2156.10  374.26
  14  26   0  154.00   23.06
 -14 -26   0   93.14   23.59
  14  26   0  103.66   23.11
  14  26   0  115.96   23.02
  14  28   0   40.93   10.45
 -14 -28   0   35.61   11.39
  14  28   0   44.48   11.07
  14  28   0   47.51   10.92
  14  30   0  296.61   49.32
  14  30   0  334.08   49.68
  14  30   0  380.22   63.13
 -14 -30   0  373.70   63.51
  14  32   0   92.33   18.21
 -14 -32   0   82.85   19.64
  14  32   0   88.10   18.09
  14  32   0   75.00   18.18
  14  34   0   48.24   11.96
 -14 -34   0   50.33   14.41
  14  34   0   42.01   12.06
  14  34   0   42.12   12.14
  14  36   0  324.49   59.78
 -14 -36   0  322.41   60.37
  14  36   0  383.87   59.92
  14  36   0  272.99   59.36
  14  38   0    9.51    8.42
 -14 -38   0    1.70   11.56
  14  38   0    8.92    8.05
  14  38   0    9.98    8.06
  14  40   0    5.29    7.86
 -14 -40   0   12.85   12.07
  14  40   0    6.63    8.20
  14  40   0    1.15    8.17
  14  42   0  140.62   28.07
 -14 -42   0  140.01   29.77
  14  42   0  142.83   28.18
  14  42   0  138.61   28.11
  14  44   0   52.48   13.67
 -14 -44   0   49.78   17.03
  14  44   0   54.39   14.08
  14  44   0   49.85   14.01
  14  46   0  578.16  103.86
 -14 -46   0  526.19  104.38
 -14 -46   0  594.84  104.86
  14  46   0  587.80  104.05
  14  46   0  588.33  104.02
  14  48   0  294.87   60.47
 -14 -48   0  291.55   60.94
 -14 -48   0  337.18   62.15
  14  48   0  333.18   60.92
  14  48   0  379.34   61.15
  14  50   0  109.69   28.66
 -14 -50   0  120.29   31.05
 -14 -50   0  160.74   32.16
  14  50   0  202.21   32.62
  14  50   0  133.63   29.52
 -14 -52   0    2.59   18.14
 -14 -52   0    3.93   13.47
  14  52   0    8.42   16.29
  14  52   0    8.49   14.27
  14  54   0  134.45   26.39
 -14 -54   0  130.96   34.51
 -14 -54   0  134.46   31.60
  14  54   0  141.07   30.79
 -14 -56   0   18.14   22.33
 -14 -56   0    8.56   16.47
  14  56   0    2.30   17.97
  14  56   0   17.10   16.82
  16   0   0 1875.47  335.89
 -16   0   0 1946.62  336.20
  16   2   0  238.08   40.51
 -16  -2   0  220.51   40.67
 -16  -2   0  200.92   40.69
  16   2   0  225.36   40.46
  16   4   0   25.76    7.96
 -16  -4   0   19.19    7.87
 -16  -4   0   18.78    7.12
  16   4   0   26.58    6.48
  16   6   0  119.83   18.97
 -16  -6   0   85.96   19.14
 -16  -6   0   79.62   18.97
  16   6   0  104.12   18.94
  16   8   0  208.50   33.70
 -16  -8   0  149.40   33.33
 -16  -8   0  168.32   33.62
  16   8   0  201.78   33.57
  16  10   0 2686.96  413.04
 -16 -10   0 2106.08  412.83
 -16 -10   0 2067.20  413.11
  16  10   0 2493.56  412.96
  16  12   0 1391.14  238.85
 -16 -12   0 1260.70  238.80
 -16 -12   0 1238.31  239.05
  16  12   0 1506.35  238.99
  16  14   0  203.27   30.78
 -16 -14   0  147.92   31.04
 -16 -14   0  155.34   30.96
  16  14   0  152.86   30.71
  16  16   0  181.94   29.37
 -16 -16   0  153.96   29.62
 -16 -16   0  128.24   29.49
  16  16   0  159.75   29.42
  16  18   0  277.49   46.65
 -16 -18   0  238.05   47.00
 -16 -18   0  229.41   46.78
  16  18   0  275.43   46.75
  16  20   0   85.02   15.53
 -16 -20   0   75.68   16.44
 -16 -20   0   61.85   15.77
  16  20   0   79.52   15.81
  16  22   0 1236.67  212.87
 -16 -22   0 1236.51  213.05
 -16 -22   0 1145.88  213.01
  16  22   0 1185.79  212.95
  16  24   0 1990.28  334.30
 -16 -24   0 1798.28  334.45
 -16 -24   0 1806.84  334.41
  16  24   0 1926.60  334.41
  16  24   0 1926.56  334.46
  16  26   0  296.02   55.53
 -16 -26   0  281.73   56.09
 -16 -26   0  307.15   56.27
  16  26   0  313.39   55.74
  16  26   0  326.71   55.78
  16  28   0  249.68   43.20
  16  28   0  328.49   54.90
 -16 -28   0  319.86   55.42
  16  28   0  302.42   54.80
  16  30   0  168.97   30.66
 -16 -30   0  149.57   31.34
  16  30   0  158.25   30.42
  16  30   0  156.07   30.38
  16  32   0  803.07  129.37
  16  32   0 1082.92  171.67
 -16 -32   0  978.36  171.93
  16  32   0  996.88  171.74
  16  34   0  508.91   88.32
 -16 -34   0  493.14   88.84
  16  34   0  469.21   88.28
  16  34   0  485.48   88.41
  16  36   0  217.46   42.85
 -16 -36   0  238.14   43.95
  16  36   0  229.23   42.97
  16  36   0  231.99   43.01
  16  38   0   28.20    9.92
 -16 -38   0   22.85   12.97
  16  38   0   19.88    9.76
  16  38   0   30.43    9.98
  16  40   0  132.66   26.41
 -16 -40   0  123.36   27.91
  16  40   0  134.57   26.35
  16  40   0  129.75   26.23
  16  42   0   50.03   13.94
 -16 -42   0   63.07   17.12
  16  42   0   47.33   13.99
  16  42   0   54.33   14.15
  16  44   0 2141.73  292.91
 -16 -44   0 2197.41  393.21
  16  44   0 2174.90  392.71
  16  44   0 2359.01  392.79
  16  46   0 1150.36  218.81
 -16 -46   0 1217.50  219.63
  16  46   0 1270.98  219.03
  16  46   0 1281.67  219.00
  16  48   0  166.81   27.99
  16  48   0  126.25   31.56
 -16 -48   0  142.52   33.44
 -16 -48   0  152.74   34.33
  16  48   0  217.33   34.89
  16  50   0   12.86   12.53
 -16 -50   0   13.90   13.73
 -16 -50   0   11.51   14.89
  16  50   0   12.35   15.43
  16  50   0   14.44   14.22
 -16 -52   0   92.24   23.66
  16  52   0  116.41   26.03
 -16 -52   0   98.54   26.95
  16  52   0  142.03   28.22
  16  52   0  120.65   26.92
 -16 -54   0   65.18   23.93
 -16 -54   0   76.74   21.77
  16  54   0   55.45   21.02
  16  54   0   78.43   21.02
  18   0   0    5.09    5.42
 -18   0   0    3.25    5.66
  18   2   0 2212.96  385.78
 -18  -2   0 2145.71  386.02
 -18  -2   0 2224.00  386.10
  18   2   0 2171.87  385.78
  18   4   0    2.10    5.45
 -18  -4   0    4.17    5.55
 -18  -4   0    2.59    5.38
  18   4   0    4.10    4.38
  18   6   0  632.41   96.81
 -18  -6   0  496.05   96.73
 -18  -6   0  455.85   96.81
  18   6   0  579.90   96.71
  18   8   0    8.42    5.72
 -18  -8   0    3.97    6.21
 -18  -8   0    7.06    5.41
  18   8   0    2.42    5.69
  18  10   0 3890.72  619.87
 -18 -10   0 3011.35  619.65
 -18 -10   0 3451.25  620.02
  18  10   0 3788.45  619.87
  18  12   0 2847.58  448.00
 -18 -12   0 2208.43  447.83
 -18 -12   0 2369.37  448.15
  18  12   0 2732.55  447.97
  18  14   0  338.87   56.90
 -18 -14   0  270.67   56.90
 -18 -14   0  325.52   57.14
  18  14   0  328.79   57.03
  18  16   0  446.87   70.13
 -18 -16   0  353.03   70.09
 -18 -16   0  356.08   70.23
  18  16   0  398.08   70.08
  18  18   0  129.79   22.25
 -18 -18   0   98.68   22.68
 -18 -18   0  107.17   22.49
  18  18   0  122.79   22.48
  18  20   0   85.51   15.60
 -18 -20   0   72.63   16.38
 -18 -20   0   63.70   15.28
  18  20   0   79.87   15.96
 -18 -22   0  179.43   30.89
  18  22   0  228.07   38.11
 -18 -22   0  201.40   38.65
  18  22   0  211.04   38.14
  18  24   0 1071.73  194.48
 -18 -24   0 1040.67  194.69
 -18 -24   0 1254.84  194.95
  18  24   0 1191.99  194.62
  18  24   0  912.79  194.54
  18  26   0    2.98    6.03
 -18 -26   0    2.96    8.79
 -18 -26   0    2.12   10.23
  18  26   0    3.96    6.59
  18  26   0    7.35    6.83
 -18 -28   0    6.17    7.74
  18  28   0    4.98    4.70
  18  28   0    3.17    7.48
 -18 -28   0    4.26    9.24
  18  28   0    5.05    6.86
  18  30   0   35.03   11.80
 -18 -30   0   27.77   12.21
  18  30   0   40.87   10.26
  18  30   0   29.98    9.61
  18  32   0  126.38   24.51
 -18 -32   0  117.76   25.35
  18  32   0  115.03   24.18
  18  32   0  123.58   24.08
  18  34   0 2050.51  347.02
 -18 -34   0 1864.71  347.25
  18  34   0 1944.49  347.01
  18  34   0 1974.28  347.13
  18  36   0 1002.57  181.10
 -18 -36   0 1009.69  181.60
  18  36   0 1010.58  181.18
  18  36   0 1047.88  181.27
 -18 -38   0   14.49    9.87
  18  38   0   14.67    8.88
  18  38   0   18.30    9.15
  18  38   0   21.99    9.21
  18  40   0   57.71   13.90
 -18 -40   0   44.09   16.56
  18  40   0   57.90   13.88
  18  40   0   46.90   13.57
  18  42   0  193.83   35.27
 -18 -42   0  192.66   36.85
  18  42   0  180.19   35.10
  18  42   0  159.53   34.89
  18  44   0   49.21   13.57
 -18 -44   0   44.09   17.12
  18  44   0   56.28   13.90
  18  44   0   43.83   13.61
  18  46   0  614.72   89.57
  18  46   0  623.42  116.35
 -18 -46   0  653.12  117.43
  18  46   0  694.11  116.60
  18  48   0  313.89   45.93
  18  48   0  255.09   56.12
 -18 -48   0  263.63   56.98
 -18 -48   0  317.42   58.39
  18  48   0  352.60   56.91
  18  50   0  132.37   30.24
 -18 -50   0  124.10   31.00
 -18 -50   0  122.95   31.82
  18  50   0  170.22   31.96
  18  50   0  166.11   31.45
  18  52   0   66.77   16.57
  18  52   0   58.15   18.14
 -18 -52   0   53.49   19.38
 -18 -52   0   59.73   20.44
  18  52   0   65.29   20.21
  18  54   0  301.84   58.20
 -18 -54   0  229.49   58.77
 -18 -54   0  309.02   59.78
  18  54   0  317.51   59.13
  18  54   0  361.50   59.09
  20   0   0 8282.71 1517.36
 -20   0   0 9163.46 1517.78
  20   2   0 1544.85  274.34
 -20  -2   0 1481.78  274.60
 -20  -2   0 1539.31  274.67
  20   2   0 1628.29  274.39
  20   4   0   46.25    9.64
 -20  -4   0   34.31    9.34
 -20  -4   0   32.51    9.68
  20   4   0   37.24    8.76
  20   6   0  130.46   20.39
 -20  -6   0   90.40   20.34
 -20  -6   0   81.23   20.47
  20   6   0  115.05   20.22
  20   8   0  545.30   82.04
 -20  -8   0  396.87   81.97
 -20  -8   0  406.74   82.16
  20   8   0  475.41   81.94
  20  10   0  281.51   44.27
 -20 -10   0  208.30   44.18
 -20 -10   0  221.70   44.35
  20  10   0  255.06   44.30
  20  12   0  351.17   56.15
 -20 -12   0  245.72   55.81
 -20 -12   0  303.63   56.36
  20  12   0  345.60   56.10
  20  14   0  130.73   22.84
 -20 -14   0  101.03   22.98
 -20 -14   0  100.26   23.03
  20  14   0  140.48   23.46
  20  16   0   69.09   12.36
 -20 -16   0   41.67   12.93
 -20 -16   0   51.31   12.55
  20  16   0   58.01   12.74
  20  18   0  311.96   54.01
 -20 -18   0  270.56   54.22
 -20 -18   0  265.21   54.12
  20  18   0  338.33   54.22
  20  20   0  114.53   22.87
 -20 -20   0  106.60   23.35
 -20 -20   0  115.02   23.12
  20  20   0  136.29   23.32
  20  22   0 1027.68  189.43
 -20 -22   0  916.53  189.62
 -20 -22   0 1208.63  189.84
  20  22   0 1104.38  189.49
  20  24   0   52.30   11.64
 -20 -24   0   38.35   12.96
 -20 -24   0   60.26   15.24
  20  24   0   45.12   12.06
  20  26   0   84.01   17.21
  20  26   0   95.72   20.08
 -20 -26   0   96.45   20.91
 -20 -26   0  109.36   21.55
  20  26   0   98.67   19.77
  20  28   0  175.78   34.08
 -20 -28   0  165.89   34.80
 -20 -28   0  204.00   35.28
  20  28   0  175.99   33.99
  20  28   0  177.73   34.17
  20  30   0   13.41    8.54
 -20 -30   0    6.71   10.65
 -20 -30   0   28.12   11.73
  20  30   0   13.99    7.81
  20  30   0   12.32    7.12
  20  32   0 1003.42  172.82
 -20 -32   0  899.27  173.04
  20  32   0  990.67  172.78
  20  32   0  980.27  172.84
  20  34   0   11.07    8.96
 -20 -34   0   -1.91   11.03
  20  34   0    8.21    7.84
  20  34   0    2.03    6.94
  20  36   0 2272.79  400.19
 -20 -36   0 1980.74  400.39
  20  36   0 2284.28  400.21
  20  36   0 2496.86  400.44
  20  38   0  194.45   41.11
 -20 -38   0  227.87   42.48
  20  38   0  233.71   41.40
  20  38   0  217.79   41.39
  20  40   0   62.04   14.33
  20  40   0   65.46   16.20
 -20 -40   0   81.66   18.99
  20  40   0   63.82   16.08
  20  42   0    2.06    6.47
  20  42   0    0.81    8.70
 -20 -42   0    2.96   12.84
  20  42   0   11.81    8.64
  20  44   0 1363.63  196.19
  20  44   0 1397.09  261.55
 -20 -44   0 1552.46  262.23
  20  44   0 1588.57  261.62
  20  46   0  253.02   52.37
 -20 -46   0  253.30   53.66
  20  46   0  310.57   53.23
  20  46   0  286.55   52.72
  20  48   0    5.92   11.28
 -20 -48   0   19.99   14.96
  20  48   0    6.09   14.31
  20  48   0   14.63   12.72
  20  50   0   19.53   11.29
 -20 -50   0   21.14   14.62
 -20 -50   0   30.56   16.55
  20  50   0   17.93   15.42
  20  50   0   16.38   14.45
  20  52   0   62.31   17.83
  20  52   0   66.95   19.70
 -20 -52   0   88.43   21.56
 -20 -52   0   72.15   22.69
  20  52   0   76.90   21.58
  22   0   0    2.71    5.67
 -22   0   0    0.47    6.15
  22   2   0 3958.61  704.44
 -22  -2   0 3806.74  704.76
 -22  -2   0 3983.16  704.80
  22   2   0 4196.41  704.50
  22   4   0  224.33   38.82
 -22  -4   0  212.12   39.06
 -22  -4   0  176.20   39.07
  22   4   0  223.27   38.79
  22   6   0  238.73   39.01
 -22  -6   0  173.82   38.78
 -22  -6   0  190.37   38.97
  22   6   0  234.24   38.69
  22   8   0   15.97    6.88
 -22  -8   0   10.89    7.26
 -22  -8   0   11.72    6.46
  22   8   0   15.40    6.43
  22  10   0  272.01   44.01
 -22 -10   0  212.69   44.01
 -22 -10   0  200.64   44.09
  22  10   0  265.72   43.91
  22  12   0   45.61   10.52
 -22 -12   0   39.58   10.51
 -22 -12   0   22.23   10.03
  22  12   0   47.36   10.46
  22  14   0   34.79    8.47
 -22 -14   0   20.97    8.75
 -22 -14   0   30.06    9.40
  22  14   0   36.97    9.25
  22  16   0   86.24   17.25
 -22 -16   0   74.36   16.96
 -22 -16   0   69.29   16.86
  22  16   0   93.87   17.02
  22  18   0   26.42    7.51
 -22 -18   0   15.18    8.82
 -22 -18   0   11.59    7.72
  22  18   0   19.02    8.23
  22  20   0    3.23    4.78
  22  20   0    4.38    5.65
 -22 -20   0    7.36    8.41
 -22 -20   0    4.97    8.75
  22  22   0   86.60   19.42
 -22 -22   0   97.83   21.07
 -22 -22   0   99.65   21.20
  22  22   0   96.36   19.47
  22  24   0    4.61    6.14
 -22 -24   0    5.73    8.12
 -22 -24   0    5.36   11.57
  22  24   0   10.01    7.54
  22  26   0  150.73   27.05
 -22 -26   0  115.86   27.29
 -22 -26   0  146.07   28.37
  22  26   0  132.26   26.68
  22  28   0   67.24   14.31
 -22 -28   0   52.64   15.43
 -22 -28   0   54.93   16.35
  22  28   0   66.37   14.28
  22  28   0   55.81   14.18
  22  30   0    2.57    7.82
 -22 -30   0    1.62    9.92
 -22 -30   0    3.37   11.38
  22  30   0    9.26    7.92
  22  30   0    6.02    6.91
  22  32   0  860.23  152.90
 -22 -32   0  849.42  153.35
  22  32   0  906.53  152.88
  22  32   0  805.50  152.84
  22  34   0 4425.45  741.95
 -22 -34   0 3958.39  742.17
  22  34   0 4524.63  741.86
  22  34   0 3838.97  741.88
  22  36   0  417.76   76.75
 -22 -36   0  443.05   77.47
  22  36   0  421.84   76.57
  22  36   0  403.67   76.70
  22  38   0   -2.02    8.56
 -22 -38   0    3.19   12.14
  22  38   0    6.02    7.85
  22  38   0    4.82    8.38
  22  40   0  168.47   36.32
 -22 -40   0  195.40   38.19
  22  40   0  189.31   36.45
  22  40   0  205.04   36.61
  22  42   0  195.56   35.29
  22  42   0  251.32   44.40
 -22 -42   0  215.33   45.01
  22  42   0  253.26   43.58
  22  44   0    9.07    9.28
 -22 -44   0   13.00   14.19
  22  44   0   11.28    9.04
  22  44   0    3.30    9.03
  22  46   0  378.04   75.95
 -22 -46   0  365.64   76.55
  22  46   0  466.11   76.94
  22  46   0  436.18   76.58
  22  48   0   90.14   24.84
 -22 -48   0  105.98   27.77
  22  48   0  124.44   26.90
  22  48   0  139.20   26.36
  22  50   0    9.13   10.59
 -22 -50   0   10.94   16.73
  22  50   0   12.86   16.25
  22  50   0   15.99   13.35
  22  52   0  108.98   24.67
 -22 -52   0   90.45   26.28
 -22 -52   0  114.12   28.00
  22  52   0  116.10   27.38
  22  52   0  107.54   25.80
  24   0   0 6666.59 1167.24
 -24   0   0 6585.20 1167.63
  24   2   0 1653.34  293.71
 -24  -2   0 1561.01  294.11
 -24  -2   0 1633.25  294.10
  24   2   0 1764.47  293.77
  24   4   0  115.51   22.57
 -24  -4   0   86.49   23.04
 -24  -4   0  113.35   22.88
  24   4   0  141.70   22.62
  24   6   0  466.04   72.69
 -24  -6   0  333.35   72.80
 -24  -6   0  368.71   72.89
  24   6   0  429.08   72.60
  24   8   0   95.94   16.95
 -24  -8   0   59.86   16.41
 -24  -8   0   71.91   16.86
  24   8   0   96.14   16.57
  24  10   0  704.56  109.88
 -24 -10   0  509.92  109.84
 -24 -10   0  558.36  110.03
  24  10   0  679.01  109.80
  24  12   0  887.05  134.13
 -24 -12   0  640.62  133.94
 -24 -12   0  689.73  134.19
  24  12   0  788.24  133.96
  24  14   0  540.85   86.67
 -24 -14   0  427.23   86.75
 -24 -14   0  431.81   86.80
  24  14   0  529.17   86.80
  24  16   0  121.07   21.15
 -24 -16   0   86.50   21.15
 -24 -16   0   90.52   21.25
  24  16   0  128.62   21.55
  24  18   0  211.03   36.80
 -24 -18   0  172.87   36.69
 -24 -18   0  190.10   37.49
  24  18   0  213.54   36.64
  24  20   0  741.19  124.33
 -24 -20   0  637.53  124.31
 -24 -20   0  666.87  124.57
  24  20   0  739.84  124.31
  24  22   0   15.24    6.92
 -24 -22   0    9.42    9.64
 -24 -22   0   18.31   11.70
  24  22   0   17.32    7.41
  24  24   0  110.74   22.90
 -24 -24   0   85.63   22.38
 -24 -24   0  115.37   23.89
  24  24   0  122.70   21.99
  24  26   0  360.34   64.75
 -24 -26   0  272.12   64.57
 -24 -26   0  425.86   65.65
  24  26   0  360.25   64.69
  24  28   0   33.90   10.73
 -24 -28   0   23.85   11.38
 -24 -28   0   22.20   10.48
  24  28   0   29.66   10.38
  24  28   0   37.66   10.09
  24  30   0    4.83    8.13
 -24 -30   0    8.10   10.21
 -24 -30   0   14.21   11.89
  24  30   0    2.88    8.24
  24  30   0   -0.54    7.71
  24  32   0 1106.33  198.37
 -24 -32   0  999.00  198.75
 -24 -32   0 1266.54  198.87
  24  32   0 1162.96  198.40
  24  32   0 1028.82  198.30
  24  34   0  291.86   50.08
 -24 -34   0  246.87   50.80
  24  34   0  267.31   49.87
  24  34   0  260.29   49.70
  24  36   0  869.20  152.25
 -24 -36   0  838.57  152.78
  24  36   0  874.09  152.09
  24  36   0  816.79  152.16
  24  38   0   95.28   22.41
 -24 -38   0  100.57   23.99
  24  38   0   92.93   21.30
  24  38   0  104.96   21.43
  24  40   0    5.34   11.05
 -24 -40   0   -6.86   13.70
  24  40   0    3.43    9.12
  24  40   0    3.62    6.17
  24  42   0   91.06   18.20
  24  42   0   83.86   22.19
 -24 -42   0   98.98   24.23
  24  42   0  106.64   21.37
  24  44   0  228.05   47.12
 -24 -44   0  214.40   48.16
  24  44   0  269.32   48.08
  24  44   0  253.75   47.09
  24  46   0  370.39   77.15
 -24 -46   0  397.70   78.34
  24  46   0  474.87   78.00
  24  46   0  418.25   77.12
  24  48   0   78.18   24.54
 -24 -48   0  111.45   28.10
  24  48   0  141.50   28.23
  24  48   0  119.38   25.98
  24  50   0   37.86   14.30
 -24 -50   0   28.95   19.54
  24  50   0   53.48   20.00
  24  50   0   50.67   16.66
  26   0   0    8.21    5.92
 -26   0   0    4.89    6.80
  26   2   0  826.20  140.60
 -26  -2   0  780.84  141.06
 -26  -2   0  731.20  141.02
  26   2   0  804.43  140.59
  26   4   0   94.36   17.60
 -26  -4   0   79.81   17.75
 -26  -4   0   82.32   17.73
  26   4   0   84.05   17.54
  26   6   0    0.63    6.00
 -26  -6   0    2.37    6.52
 -26  -6   0    5.95    6.20
  26   6   0    7.06    6.76
  26   8   0   31.49    8.69
 -26  -8   0   17.71    7.94
 -26  -8   0   21.51    8.31
  26   8   0   25.82    7.56
  26  10   0   29.75    8.93
 -26 -10   0   19.27    8.66
 -26 -10   0   22.23    8.69
  26  10   0   32.02    8.19
  26  12   0 2570.04  388.53
 -26 -12   0 1891.73  388.20
 -26 -12   0 1985.59  388.57
  26  12   0 2335.63  388.30
  26  14   0 1426.35  227.69
 -26 -14   0 1162.95  227.61
 -26 -14   0 1131.99  227.82
  26  14   0 1390.10  227.66
  26  16   0   70.35   13.46
 -26 -16   0   52.29   14.31
 -26 -16   0   59.28   16.13
  26  16   0   56.82   13.45
  26  18   0  134.56   23.99
 -26 -18   0   97.98   24.00
 -26 -18   0  136.51   25.17
  26  18   0  121.79   23.86
  26  20   0   53.60   12.66
 -26 -20   0   40.02   13.10
 -26 -20   0   63.07   14.51
  26  20   0   55.41   12.58
  26  22   0 2030.48  326.22
 -26 -22   0 1613.92  326.07
 -26 -22   0 1786.64  326.31
  26  22   0 1944.54  326.17
  26  24   0  504.62   81.83
 -26 -24   0  356.96   81.56
 -26 -24   0  483.22   82.39
  26  24   0  464.62   81.69
  26  26   0  268.40   49.70
 -26 -26   0  206.58   49.68
 -26 -26   0  297.29   50.73
  26  26   0  299.30   49.54
  26  28   0    6.79    9.57
 -26 -28   0   14.71    8.45
 -26 -28   0   -1.56   11.92
  26  28   0    2.44    7.58
  26  28   0   13.36    8.05
  26  30   0    8.53    8.86
 -26 -30   0   10.65    9.39
 -26 -30   0   22.12   12.66
  26  30   0   17.95    8.52
  26  30   0    9.13    8.41
  26  32   0  514.02   93.47
 -26 -32   0  478.10   93.77
 -26 -32   0  527.31   94.15
  26  32   0  547.66   93.62
  26  32   0  516.95   93.41
  26  34   0 1802.73  299.81
  26  34   0 2300.07  402.91
 -26 -34   0 2280.24  403.33
  26  34   0 2728.81  403.16
  26  36   0    4.25   11.44
 -26 -36   0    0.03   12.95
  26  36   0   10.53    9.54
  26  36   0    1.63    7.15
  26  38   0  258.23   48.02
 -26 -38   0  225.83   48.87
  26  38   0  258.92   47.55
  26  38   0  257.18   47.39
  26  40   0  119.00   24.49
 -26 -40   0  116.32   26.31
  26  40   0  111.06   23.50
  26  40   0   90.66   23.14
  26  42   0  212.00   44.71
 -26 -42   0  236.31   46.44
  26  42   0  237.50   44.41
  26  42   0  241.89   44.22
  26  44   0   88.91   20.41
  26  44   0   72.29   25.34
 -26 -44   0  116.48   26.51
  26  44   0  135.21   26.43
  26  46   0  107.98   24.22
 -26 -46   0   94.41   26.93
  26  46   0  108.78   26.72
  26  46   0   97.86   24.13
  26  48   0  620.20  138.77
 -26 -48   0  740.74  140.29
  26  48   0  896.71  140.05
  26  48   0  814.08  139.22
  26  50   0    8.10   11.18
 -26 -50   0    2.36   17.24
  26  50   0    7.89   18.30
  26  50   0    2.87   13.46
  28   0   0  798.13  132.74
 -28   0   0  671.39  133.11
  28   2   0   66.50   13.71
 -28  -2   0   52.87   14.09
 -28  -2   0   53.92   15.04
  28   2   0   64.60   13.64
  28   4   0   57.22   12.55
 -28  -4   0   50.59   12.77
 -28  -4   0   39.75   12.33
  28   4   0   54.72   13.45
  28   6   0   38.23    9.48
 -28  -6   0   28.55    9.79
 -28  -6   0   30.49   10.49
  28   6   0   32.96    9.89
  28   8   0    1.75    7.22
 -28  -8   0    3.04    6.67
 -28  -8   0    4.73    6.65
  28   8   0    8.74    7.51
  28  10   0  411.07   68.99
 -28 -10   0  318.79   68.87
 -28 -10   0  348.19   69.18
  28  10   0  429.86   68.86
  28  12   0 2187.44  333.71
 -28 -12   0 1562.45  333.43
 -28 -12   0 1773.10  333.91
  28  12   0 2028.25  333.61
  28  14   0 1024.25  171.76
 -28 -14   0  796.24  171.52
 -28 -14   0 1052.08  172.21
  28  14   0 1015.57  171.63
  28  16   0   72.34   15.44
 -28 -16   0   54.43   16.99
 -28 -16   0   73.25   17.72
  28  16   0   70.38   15.59
  28  18   0   55.65   14.24
 -28 -18   0   24.63   10.72
 -28 -18   0   36.48   13.47
  28  18   0   33.01   10.25
  28  20   0 2140.30  320.20
 -28 -20   0 1417.86  319.67
 -28 -20   0 1765.53  320.16
  28  20   0 1969.70  320.10
  28  22   0  740.25  119.34
 -28 -22   0  554.83  119.07
 -28 -22   0  652.32  119.48
  28  22   0  726.92  119.35
  28  24   0  306.74   56.11
 -28 -24   0  257.58   56.11
 -28 -24   0  339.78   57.00
  28  24   0  317.60   56.02
  28  26   0   17.50    9.70
 -28 -26   0    7.01    9.68
 -28 -26   0   13.27   13.34
  28  26   0   11.83    7.80
  28  28   0   21.96   10.99
 -28 -28   0   20.82   12.13
 -28 -28   0   25.98   14.13
  28  28   0   24.92    9.20
  28  30   0   48.59   14.70
 -28 -30   0   35.96   14.03
 -28 -30   0   46.41   15.75
  28  30   0   42.50   12.30
  28  30   0   48.79   12.46
 -28 -32   0  554.14   80.69
  28  32   0  625.44  104.46
 -28 -32   0  494.00  104.32
  28  32   0  641.93  104.23
  28  32   0  564.10  104.01
  28  34   0   31.82   13.70
 -28 -34   0   26.43   13.16
  28  34   0   25.23   10.72
  28  34   0   32.60    9.86
  28  36   0   23.81   13.45
 -28 -36   0   23.80   16.33
  28  36   0   31.41   10.93
  28  36   0   32.72   10.02
  28  38   0   33.37   14.17
 -28 -38   0   33.38   15.12
  28  38   0   28.17   11.40
  28  38   0   31.86   10.67
  28  40   0   29.34   14.46
 -28 -40   0   32.02   16.04
  28  40   0   34.15   12.54
  28  40   0   40.50   12.41
  28  42   0  166.26   39.69
 -28 -42   0  176.00   42.30
  28  42   0  241.25   42.01
  28  42   0  221.61   40.30
  28  44   0   10.43   13.56
 -28 -44   0   12.41   16.56
  28  44   0   23.79   18.14
  28  44   0   22.24   13.76
  28  46   0  737.04  171.79
 -28 -46   0  844.61  172.51
  28  46   0 1172.24  172.83
  28  46   0 1052.39  171.90
  28  48   0  173.88   30.48
  28  48   0  163.75   36.08
 -28 -48   0  177.95   38.58
  28  48   0  196.54   39.44
  30   0   0    4.27    6.47
 -30   0   0   -1.64    7.45
  30   2   0   20.22    8.44
 -30  -2   0   15.08    8.47
 -30  -2   0   14.79    8.45
  30   2   0   18.21    7.52
  30   4   0   19.79    8.13
 -30  -4   0   13.57    8.84
 -30  -4   0   10.23    9.53
  30   4   0   22.25    9.97
  30   6   0    0.22    6.63
 -30  -6   0    5.42    7.52
 -30  -6   0    1.00    6.50
  30   6   0    3.56    7.72
  30   8   0  332.44   52.36
 -30  -8   0  218.55   52.17
 -30  -8   0  271.30   52.48
  30   8   0  298.67   51.70
  30  10   0  209.80   37.85
 -30 -10   0  168.55   37.75
 -30 -10   0  200.54   38.68
  30  10   0  219.66   37.67
  30  12   0 1483.88  229.96
 -30 -12   0  942.74  229.66
 -30 -12   0 1259.69  230.22
  30  12   0 1467.13  229.94
  30  14   0 2132.07  329.58
 -30 -14   0 1519.34  329.23
 -30 -14   0 1883.55  329.87
  30  14   0 1946.16  329.46
  30  16   0   15.86    9.18
 -30 -16   0   12.27    8.43
 -30 -16   0    9.82   12.15
  30  16   0   10.89    8.91
  30  18   0  414.28   65.68
 -30 -18   0  258.47   65.04
 -30 -18   0  348.45   65.99
  30  18   0  409.69   65.67
  30  20   0  650.94  104.41
 -30 -20   0  444.82  103.98
 -30 -20   0  602.65  104.44
  30  20   0  626.62  104.11
  30  22   0 3280.08  530.02
 -30 -22   0 2529.68  529.74
 -30 -22   0 2810.19  530.02
  30  22   0 3432.77  530.17
  30  24   0    8.25   10.45
 -30 -24   0    1.35    9.33
 -30 -24   0    5.14   12.79
  30  24   0    5.25    7.74
  30  26   0   21.52   12.41
 -30 -26   0   25.64   11.64
 -30 -26   0   26.49   14.75
  30  26   0   34.43    9.98
  30  28   0    4.93   11.00
 -30 -28   0    2.05   10.36
 -30 -28   0    0.36   14.13
  30  28   0    4.24    7.76
  30  30   0  109.45   25.02
 -30 -30   0   93.56   23.42
 -30 -30   0  105.76   24.46
  30  30   0  104.62   21.99
  30  30   0  114.00   22.28
  30  32   0   40.15   14.22
 -30 -32   0   28.88   13.78
 -30 -32   0   38.80   15.47
  30  32   0   36.96   11.28
  30  32   0   29.15   11.25
  30  34   0  178.06   33.60
 -30 -34   0  146.42   33.40
 -30 -34   0  166.78   34.05
  30  34   0  166.85   32.23
  30  34   0  161.38   31.91
  30  36   0   72.75   20.71
 -30 -36   0   62.70   18.86
  30  36   0   71.09   16.78
  30  36   0   71.27   16.22
  30  38   0  471.32   77.18
 -30 -38   0  405.50   77.28
  30  38   0  384.01   76.35
  30  38   0  406.94   76.36
  30  40   0   32.74   15.70
 -30 -40   0   36.38   16.28
  30  40   0   46.66   19.26
  30  40   0   49.63   15.58
  30  42   0  148.19   36.23
 -30 -42   0  149.88   37.22
  30  42   0  230.69   38.77
  30  42   0  188.22   36.82
  30  44   0   14.96   14.78
 -30 -44   0    3.22   15.25
  30  44   0   12.90   18.34
  30  44   0    5.27   13.61
  30  46   0   66.87   21.37
 -30 -46   0   50.61   21.66
  30  46   0   76.79   24.04
  30  46   0   80.27   20.13
  32   0   0   62.40   13.63
 -32   0   0   54.85   15.23
  32   2   0  482.59   82.61
 -32  -2   0  430.55   82.79
 -32  -2   0  516.79   83.31
  32   2   0  414.79   82.19
  32   4   0   44.07   12.32
 -32  -4   0   49.77   13.34
 -32  -4   0   56.11   17.20
  32   4   0   53.24   12.73
  32   6   0   54.80   12.84
 -32  -6   0   46.29   14.64
 -32  -6   0   42.00   13.42
  32   6   0   49.01   12.77
  32   8   0  169.20   30.50
 -32  -8   0  131.25   30.21
 -32  -8   0  153.77   31.60
  32   8   0  165.81   30.40
  32  10   0  302.66   49.09
 -32 -10   0  214.81   49.15
 -32 -10   0  248.77   49.58
  32  10   0  278.21   48.56
  32  12   0 2186.99  338.98
 -32 -12   0 1643.13  338.90
 -32 -12   0 1985.71  339.28
  32  12   0 1849.55  338.65
  32  14   0  669.06  105.80
 -32 -14   0  474.96  105.53
 -32 -14   0  582.84  106.29
  32  14   0  619.57  105.64
  32  16   0  150.94   26.28
 -32 -16   0   90.91   25.72
 -32 -16   0  123.96   27.68
  32  16   0  152.55   26.24
  32  18   0   30.07   11.35
 -32 -18   0   14.41   11.31
 -32 -18   0   16.89   12.84
  32  18   0   15.43   10.24
  32  20   0 1135.51  178.70
 -32 -20   0  879.74  178.42
 -32 -20   0  884.92  178.62
  32  20   0 1099.01  178.44
  32  22   0  459.02   77.36
 -32 -22   0  357.95   77.25
 -32 -22   0  366.16   77.06
  32  22   0  501.76   77.13
  32  24   0 1515.02  261.24
 -32 -24   0 1224.99  261.14
 -32 -24   0 1503.36  261.52
  32  24   0 1655.83  261.46
  32  26   0  859.05  145.07
 -32 -26   0  661.15  144.85
 -32 -26   0  828.03  145.51
  32  26   0  904.21  145.16
  32  28   0    8.28   11.62
 -32 -28   0   -0.77   10.83
 -32 -28   0   10.52   14.81
  32  28   0    8.84    8.59
  32  30   0  360.33   65.07
 -32 -30   0  333.18   64.85
 -32 -30   0  359.75   65.55
  32  30   0  322.97   64.48
  32  30   0  375.80   64.56
  32  32   0  117.16   24.64
  32  32   0  146.01   30.83
 -32 -32   0  141.99   30.81
 -32 -32   0  163.26   31.66
  32  32   0  174.45   29.84
  32  34   0  267.96   44.97
 -32 -34   0  202.72   44.79
 -32 -34   0  230.93   45.20
  32  34   0  243.01   43.87
  32  34   0  204.87   43.35
  32  36   0  261.35   47.51
 -32 -36   0  243.27   47.83
  32  36   0  244.67   46.51
  32  36   0  232.07   46.20
  32  38   0   47.76   18.24
 -32 -38   0   49.82   21.49
  32  38   0   80.91   21.16
  32  38   0   70.10   17.16
  32  40   0    9.78   13.28
 -32 -40   0   -7.95   14.34
  32  40   0   14.79   16.94
  32  40   0    0.54   12.42
  32  42   0   57.15   18.81
 -32 -42   0   54.05   20.14
  32  42   0   80.31   22.38
  32  42   0   62.69   19.46
  32  44   0  115.58   30.95
 -32 -44   0  126.80   33.65
  32  44   0  162.79   33.20
  32  44   0  153.85   30.75
  34   0   0   -0.09    8.19
 -34   0   0    3.09   10.90
  34   2   0   18.94    9.54
 -34  -2   0   12.11   12.10
 -34  -2   0   17.23   12.70
  34   2   0   26.57    8.64
  34   4   0   32.58   10.74
 -34  -4   0   26.33   11.38
 -34  -4   0   35.80   12.76
  34   4   0   34.26   11.51
  34   6   0   32.32   11.11
 -34  -6   0   29.52   11.85
 -34  -6   0   33.05   12.16
  34   6   0   36.27   11.09
  34   8   0  839.97  139.13
 -34  -8   0  689.84  139.41
 -34  -8   0  726.60  139.44
  34   8   0  822.48  138.95
  34  10   0 1721.05  271.73
 -34 -10   0 1285.21  271.56
 -34 -10   0 1486.60  271.99
  34  10   0 1589.41  271.37
  34  12   0   13.86    9.80
 -34 -12   0   16.87   10.63
 -34 -12   0   13.94   14.01
  34  12   0   12.75    8.74
  34  14   0   57.04   13.41
 -34 -14   0   37.14   13.25
 -34 -14   0   34.09   17.93
  34  14   0   42.47   12.46
  34  16   0    0.14    8.84
 -34 -16   0    2.16    9.37
 -34 -16   0    2.34   12.81
  34  16   0    0.90   11.22
  34  18   0    1.08   12.64
 -34 -18   0    3.09   10.52
 -34 -18   0    1.76   12.26
  34  18   0   -8.48    9.67
  34  20   0  410.91   70.38
 -34 -20   0  330.29   70.07
 -34 -20   0  356.67   70.34
  34  20   0  429.54   70.02
  34  22   0 1852.10  325.10
 -34 -22   0 1687.35  325.06
 -34 -22   0 1642.92  325.10
  34  22   0 2138.18  325.17
  34  24   0  641.71  114.51
 -34 -24   0  564.35  114.53
 -34 -24   0  654.28  114.85
  34  24   0  676.96  114.43
  34  26   0  245.07   45.95
 -34 -26   0  190.28   45.97
 -34 -26   0  250.51   47.01
  34  26   0  276.94   46.11
  34  28   0   70.16   19.37
 -34 -28   0   50.88   16.73
 -34 -28   0   59.01   19.33
  34  28   0   49.54   14.72
  34  30   0   22.10   14.54
 -34 -30   0   26.96   16.29
 -34 -30   0   39.29   15.83
  34  30   0   42.99   12.08
  34  30   0   34.21   11.47
  34  32   0  373.21   65.94
 -34 -32   0  285.49   65.62
 -34 -32   0  385.67   66.50
  34  32   0  383.13   65.53
  34  32   0  343.96   65.12
  34  34   0   28.49   14.44
 -34 -34   0   30.01   14.19
 -34 -34   0   18.65   15.34
  34  34   0   25.63   11.13
  34  34   0   10.79    9.53
  34  36   0   10.72   13.71
 -34 -36   0    4.54   13.35
  34  36   0   -0.53   16.11
  34  36   0   -1.17   10.48
  34  38   0   84.54   19.21
  34  38   0   86.87   23.45
 -34 -38   0   93.83   24.19
  34  38   0  117.44   25.63
  34  40   0    4.43   13.60
 -34 -40   0   -4.12   14.84
  34  40   0   -7.63   16.89
  34  40   0    2.07    7.99
  34  42   0  128.82   31.87
 -34 -42   0  149.70   35.11
  34  42   0  149.58   32.92
  34  42   0  134.25   30.91
  36   0   0  124.12   25.06
 -36   0   0  112.32   27.82
  36   2   0  142.91   26.85
 -36  -2   0  116.04   28.00
 -36  -2   0  122.78   28.26
  36   2   0  145.45   26.43
  36   4   0   16.35   10.96
 -36  -4   0   11.39   11.62
 -36  -4   0   13.94   10.34
  36   4   0   15.53   10.18
  36   6   0  107.41   23.22
 -36  -6   0  105.14   23.88
 -36  -6   0   99.61   23.22
  36   6   0  112.37   22.25
  36   8   0  619.14  105.12
 -36  -8   0  564.82  105.63
 -36  -8   0  536.52  105.42
  36   8   0  596.81  104.82
  36  10   0 1431.50  235.91
 -36 -10   0 1244.19  236.12
 -36 -10   0 1252.65  236.24
  36  10   0 1353.16  235.67
  36  12   0 1038.68  170.52
 -36 -12   0  849.92  170.42
 -36 -12   0  964.98  170.83
  36  12   0  962.93  170.05
  36  14   0    9.38   12.55
 -36 -14   0   15.80   11.36
 -36 -14   0   18.48   13.66
  36  14   0   15.49    9.31
  36  16   0   73.16   16.64
 -36 -16   0   50.58   17.15
 -36 -16   0   76.29   19.52
  36  16   0   67.65   16.40
  36  18   0   30.38   14.77
 -36 -18   0   16.13   11.72
 -36 -18   0   30.81   14.33
  36  18   0   25.15   11.59
  36  20   0   11.10   12.66
 -36 -20   0   14.59   14.15
 -36 -20   0   18.51   12.56
  36  20   0   21.24   11.39
  36  22   0    3.00   11.13
 -36 -22   0    2.76   12.62
 -36 -22   0    8.69   11.58
  36  22   0   -1.31   10.62
  36  24   0  925.23  166.38
 -36 -24   0  802.13  166.51
 -36 -24   0  892.04  166.76
  36  24   0 1100.67  166.61
  36  26   0 1117.52  196.62
 -36 -26   0  943.86  196.80
 -36 -26   0 1101.77  197.06
  36  26   0 1240.48  196.77
  36  28   0    3.04   12.40
 -36 -28   0    8.59   16.28
 -36 -28   0    1.55   19.10
  36  28   0    5.17   11.29
  36  30   0  248.26   45.08
 -36 -30   0  186.60   44.87
 -36 -30   0  245.62   45.62
  36  30   0  239.26   44.76
  36  30   0  230.97   43.92
  36  32   0   78.74   22.17
 -36 -32   0   73.29   22.20
 -36 -32   0  109.67   23.06
  36  32   0   89.78   21.06
  36  32   0   85.42   19.69
  36  34   0  386.78   74.86
 -36 -34   0  302.16   74.21
 -36 -34   0  397.53   74.61
  36  34   0  483.51   75.55
  36  34   0  429.07   73.87
  36  36   0    8.49   14.53
 -36 -36   0   -0.03   14.17
  36  36   0   12.76   14.34
  36  36   0    8.82   12.75
  36  38   0   14.76   17.09
 -36 -38   0   14.12   15.21
  36  38   0    2.87   14.95
  36  38   0    9.21   13.56
  36  40   0   11.83   17.66
 -36 -40   0    6.30   20.78
  36  40   0   -0.40   15.39
  36  40   0   32.50   14.73
  38   0   0   16.26   11.80
 -38   0   0    6.84   12.65
  38   2   0  605.86  105.99
 -38  -2   0  567.88  106.54
 -38  -2   0  542.08  106.34
  38   2   0  620.88  105.92
  38   4   0  204.15   37.38
 -38  -4   0  183.86   37.77
 -38  -4   0  153.56   37.12
  38   4   0  210.60   37.44
  38   6   0  144.01   28.45
 -38  -6   0  114.79   28.59
 -38  -6   0  119.92   28.34
  38   6   0  156.83   28.51
  38   8   0  615.19  104.52
 -38  -8   0  548.64  104.90
 -38  -8   0  583.45  104.97
  38   8   0  566.10  104.18
  38  10   0 2273.18  382.57
 -38 -10   0 2055.02  382.93
 -38 -10   0 2006.21  382.88
  38  10   0 2249.62  382.39
  38  12   0  257.49   45.30
 -38 -12   0  213.31   46.25
 -38 -12   0  206.75   45.58
  38  12   0  255.83   45.26
  38  14   0  385.13   72.89
 -38 -14   0  349.67   73.10
 -38 -14   0  383.08   73.63
  38  14   0  456.04   73.19
  38  16   0   41.62   12.99
 -38 -16   0   26.86   13.89
 -38 -16   0   38.70   15.08
  38  16   0   35.78   14.78
  38  18   0   73.90   19.80
 -38 -18   0   67.73   19.32
 -38 -18   0   83.70   20.53
  38  18   0   82.59   20.01
  38  20   0   22.51   13.88
 -38 -20   0   24.96   15.05
 -38 -20   0   10.51   13.69
  38  20   0   37.18   16.60
  38  22   0   53.29   16.04
 -38 -22   0   32.85   15.60
 -38 -22   0   50.56   16.47
  38  22   0   66.02   17.33
  38  24   0  734.08  141.08
 -38 -24   0  664.23  141.40
 -38 -24   0  763.84  141.44
  38  24   0  987.13  141.81
  38  26   0  190.34   36.48
 -38 -26   0  141.92   38.75
 -38 -26   0  158.20   37.34
  38  26   0  241.57   38.12
  38  28   0   33.03   15.87
 -38 -28   0   39.28   17.77
 -38 -28   0   33.72   16.98
  38  28   0   52.20   17.60
  38  30   0   18.71   14.96
 -38 -30   0   22.04   17.13
 -38 -30   0   25.07   13.16
  38  30   0   36.98   16.82
  38  30   0   20.51   12.18
  38  32   0   10.30   17.26
 -38 -32   0    9.91   15.65
 -38 -32   0    3.64   14.58
  38  32   0    3.93   18.39
  38  32   0    1.68   11.97
  38  34   0  123.76   32.65
 -38 -34   0  117.59   33.17
 -38 -34   0  155.28   33.36
  38  34   0  202.48   35.75
  38  34   0  161.58   31.98
  38  36   0  142.43   39.62
 -38 -36   0  164.48   40.25
  38  36   0  253.35   42.91
  38  36   0  214.10   39.20
  38  38   0   39.43   21.46
 -38 -38   0   56.20   27.61
  38  38   0   70.98   22.58
  38  38   0   64.44   18.89
  40   0   0 1376.60  229.55
 -40   0   0 1186.91  229.75
  40   2   0  584.12   99.63
 -40  -2   0  511.27  100.01
 -40  -2   0  470.80  100.01
  40   2   0  606.14   99.89
  40   4   0   75.93   21.71
 -40  -4   0   61.96   20.58
 -40  -4   0   93.25   21.01
  40   4   0   81.77   20.40
  40   6   0    7.77   12.21
 -40  -6   0    4.75   13.05
 -40  -6   0    5.61   11.46
  40   6   0   21.98   13.31
  40   8   0  263.68   48.37
 -40  -8   0  237.01   49.56
 -40  -8   0  260.99   48.91
  40   8   0  253.29   48.14
  40  10   0  397.69   70.24
 -40 -10   0  366.05   70.75
 -40 -10   0  354.65   70.64
  40  10   0  393.07   69.98
  40  12   0   85.22   21.11
 -40 -12   0   80.13   22.59
 -40 -12   0   87.97   21.76
  40  12   0   89.15   21.07
  40  14   0   19.98   13.60
 -40 -14   0   15.54   16.45
 -40 -14   0   16.48   13.94
  40  16   0   29.56   12.51
 -40 -16   0   21.79   13.56
 -40 -16   0   21.21   14.77
  40  16   0   26.89   14.67
  40  18   0   25.41   14.62
 -40 -18   0   25.17   14.04
 -40 -18   0   24.67   14.97
  40  18   0   35.68   15.09
  40  20   0   27.05   14.55
 -40 -20   0   16.36   16.18
 -40 -20   0   14.95   16.96
  40  20   0   27.91   14.60
  40  22   0  180.13   37.15
 -40 -22   0  158.18   37.37
 -40 -22   0  194.82   37.42
  40  22   0  202.39   37.54
  40  24   0  222.73   44.96
 -40 -24   0  212.82   46.36
 -40 -24   0  203.96   45.71
  40  24   0  288.55   46.13
  40  26   0   95.82   22.40
 -40 -26   0   76.90   25.49
 -40 -26   0   88.04   23.98
  40  26   0  115.53   24.49
  40  28   0   59.96   19.58
 -40 -28   0   69.63   21.26
 -40 -28   0   50.13   20.32
  40  28   0   75.01   20.86
  40  30   0  137.65   29.34
 -40 -30   0  120.03   32.53
 -40 -30   0  118.11   29.60
  40  30   0  148.14   32.09
  40  30   0  121.77   28.13
  40  32   0  235.23   54.97
 -40 -32   0  246.20   54.99
 -40 -32   0  303.31   54.54
  40  32   0  346.92   56.01
  40  32   0  266.94   53.27
  40  34   0   14.11   16.11
 -40 -34   0   22.86   19.80
 -40 -34   0   26.46   16.94
  40  34   0   28.78   21.16
  40  34   0   27.63   14.20
  40  36   0  321.37   74.62
 -40 -36   0  423.64   79.47
  40  36   0  466.55   77.15
  40  36   0  397.61   74.72
  42   0   0   15.56   13.61
 -42   0   0    5.84   16.20
  42   2   0 1360.75  224.13
 -42  -2   0 1096.32  223.90
 -42  -2   0 1128.18  223.86
  42   2   0 1388.93  223.69
  42   4   0  622.38  108.84
 -42  -4   0  607.87  109.21
 -42  -4   0  516.85  108.76
  42   4   0  632.77  108.52
  42   6   0  118.29   25.77
 -42  -6   0   98.32   26.62
 -42  -6   0   94.11   27.33
  42   6   0  136.81   26.47
  42   8   0  112.72   24.55
 -42  -8   0   95.95   25.00
 -42  -8   0   93.68   24.95
  42   8   0  114.86   26.78
  42  10   0  873.90  152.34
 -42 -10   0  854.34  152.54
 -42 -10   0  767.10  152.56
  42  10   0  878.21  151.99
  42  12   0   22.06   13.62
 -42 -12   0   13.28   18.76
 -42 -12   0   18.53   14.23
  42  12   0   10.61   13.51
  42  14   0   99.74   25.55
 -42 -14   0  133.26   28.27
 -42 -14   0   99.85   27.09
  42  14   0  134.50   26.71
  42  16   0   20.15   12.30
 -42 -16   0    9.62   15.19
 -42 -16   0   16.43   14.70
  42  16   0   17.45   14.81
  42  18   0   71.26   22.16
 -42 -18   0   73.15   21.60
 -42 -18   0   51.13   19.62
  42  18   0   67.61   20.00
  42  20   0   49.64   18.83
 -42 -20   0   13.06   17.61
 -42 -20   0   30.04   15.39
  42  20   0   25.26   16.12
  42  22   0   20.16   16.69
 -42 -22   0    8.14   17.54
 -42 -22   0   24.45   14.33
  42  22   0   26.25   15.99
  42  24   0   54.85   18.59
 -42 -24   0   30.80   20.61
 -42 -24   0   57.43   18.52
  42  24   0   52.91   18.12
  42  26   0   35.16   19.17
 -42 -26   0   38.59   17.80
 -42 -26   0   49.92   18.53
  42  26   0   53.57   18.44
  42  28   0    9.65   14.81
 -42 -28   0    9.12   14.57
 -42 -28   0    0.22   17.60
  42  28   0    9.86   19.84
  42  30   0   60.42   19.43
 -42 -30   0   45.77   23.07
 -42 -30   0   56.47   20.10
  42  30   0   56.07   23.92
  42  30   0   44.43   17.16
  42  32   0  288.79   61.67
 -42 -32   0  279.34   61.63
 -42 -32   0  307.51   60.97
  42  32   0  377.85   63.10
  42  32   0  321.92   59.81
  44   0   0 1342.42  221.70
 -44   0   0 1128.83  221.56
  44   2   0 1283.60  204.49
 -44  -2   0 1052.95  204.64
 -44  -2   0  904.04  204.13
  44   2   0 1281.28  204.28
  44   4   0  164.79   33.44
 -44  -4   0  160.17   33.93
 -44  -4   0  140.07   32.90
  44   4   0  163.71   33.26
  44   6   0  155.43   31.05
 -44  -6   0  122.90   33.62
 -44  -6   0  151.87   31.50
  44   6   0  143.98   31.27
  44   8   0   24.13   17.56
 -44  -8   0   19.55   16.13
 -44  -8   0   24.74   15.32
  44   8   0   26.95   16.36
  44  10   0   71.45   21.02
 -44 -10   0   71.14   23.81
 -44 -10   0   75.97   21.39
  44  10   0   84.87   21.70
  44  12   0  170.91   32.98
 -44 -12   0  153.24   33.82
 -44 -12   0  150.85   33.75
  44  12   0  151.53   33.15
  44  14   0   65.75   21.09
 -44 -14   0   97.33   24.16
 -44 -14   0   86.59   23.21
  44  14   0   93.28   22.27
  44  16   0    5.17   12.56
 -44 -16   0   14.27   20.78
 -44 -16   0    0.97   14.89
  44  16   0   13.00   14.85
  44  18   0   84.21   21.60
 -44 -18   0   69.44   21.04
  44  18   0   60.97   21.43
  44  20   0    8.07   15.47
 -44 -20   0   11.21   14.98
 -44 -20   0    7.14   14.53
  44  20   0   11.82   16.38
  44  22   0   80.92   22.23
 -44 -22   0   84.85   23.45
 -44 -22   0   93.39   23.24
  44  22   0   87.32   23.95
  44  24   0   10.51   13.93
 -44 -24   0   13.62   19.73
 -44 -24   0   21.98   18.08
  44  24   0   27.92   17.73
  44  26   0   61.64   19.52
 -44 -26   0   51.33   20.53
 -44 -26   0   45.62   22.25
  44  26   0   74.69   22.50
  44  28   0  105.75   28.64
 -44 -28   0   88.60   26.75
 -44 -28   0   91.83   28.32
  44  28   0  119.63   29.11
  44  30   0   45.01   20.03
 -44 -30   0   37.21   19.72
 -44 -30   0   34.98   19.87
  44  30   0   59.52   23.57
  44  30   0   30.90   16.39
  46   0   0   12.26   15.18
 -46   0   0   -7.08   12.94
  46   2   0  638.85  103.29
 -46  -2   0  507.72  102.93
 -46  -2   0  486.56  102.87
  46   2   0  602.01  102.95
  46   4   0  202.82   38.61
 -46  -4   0  167.99   38.74
 -46  -4   0  174.50   38.66
  46   4   0  195.58   38.76
  46   6   0    9.14   14.74
 -46  -6   0   -2.94   19.73
 -46  -6   0    9.26   14.90
  46   6   0    6.83   18.69
  46   8   0   18.39   15.18
 -46  -8   0   18.30   17.03
 -46  -8   0    6.29   19.17
  46   8   0    8.93   16.26
  46  10   0   23.16   16.15
 -46 -10   0   21.88   17.13
 -46 -10   0   16.42   16.01
  46  10   0   30.19   17.63
  46  12   0  160.15   36.18
 -46 -12   0  181.25   39.22
 -46 -12   0  174.27   37.37
  46  12   0  184.45   37.35
  46  14   0  136.42   33.07
 -46 -14   0  156.67   34.94
 -46 -14   0  155.72   36.27
  46  14   0  176.57   34.24
  46  16   0   59.56   20.87
 -46 -16   0   70.25   23.36
 -46 -16   0   83.85   22.05
  46  16   0   69.94   21.36
  46  18   0   -5.45   16.23
 -46 -18   0    4.76   18.44
 -46 -18   0    1.03   15.04
  46  18   0   -1.30   15.64
  46  20   0   77.06   22.83
 -46 -20   0   78.10   25.08
 -46 -20   0   73.05   24.05
  46  20   0   73.00   23.93
  46  22   0  200.45   44.19
 -46 -22   0  216.18   44.50
 -46 -22   0  214.29   44.59
  46  22   0  224.62   44.65
  46  24   0   13.95   18.62
 -46 -24   0   37.73   21.72
 -46 -24   0   25.12   19.67
  46  24   0   23.13   19.38
 -46 -26   0  108.12   28.53
  48   0   0  245.30   47.35
 -48   0   0  200.63   46.10
  48   2   0  419.82   77.15
 -48  -2   0  354.80   76.48
 -48  -2   0  423.88   77.05
  48   2   0  438.40   77.22
  48   4   0   33.60   18.11
 -48  -4   0   36.25   17.41
 -48  -4   0   33.22   17.91
  48   4   0   34.51   18.36
  48   6   0   52.27   19.49
 -48  -6   0   42.31   23.59
 -48  -6   0   53.95   22.80
  48   6   0   50.22   23.15
  48   8   0   80.63   22.91
 -48  -8   0   76.44   23.63
 -48  -8   0   77.18   22.78
  48   8   0   65.27   22.74
  48  10   0   87.51   26.89
 -48 -10   0  102.23   28.08
 -48 -10   0  100.73   27.10
  48  10   0  127.93   30.66
  48  12   0  254.60   53.02
 -48 -12   0  269.32   54.41
 -48 -12   0  243.76   54.00
  48  12   0  311.03   54.37
  48  14   0  470.45   90.52
 -48 -14   0  487.99   91.39
 -48 -14   0  470.50   91.19
  48  14   0  519.74   91.07
  48  16   0   25.39   18.10
 -48 -16   0   18.49   18.87
 -48 -16   0   24.41   20.82
  48  16   0   27.42   18.49
  48  18   0  100.31   27.34
 -48 -18   0   95.56   28.60
 -48 -18   0   91.41   28.18
  48  18   0  107.81   27.43
  48  20   0  228.06   54.90
 -48 -20   0  276.35   55.71
 -48 -20   0  260.87   54.39
  48  20   0  308.35   54.53
  50   0   0    0.63   17.75
 -50   0   0    4.35   15.04
  50   2   0   17.33   18.28
 -50  -2   0    8.05   15.53
 -50  -2   0    5.12   20.62
  50   2   0    7.96   18.19
  50   4   0   -1.16   17.25
 -50  -4   0    0.15   14.37
 -50  -4   0   -1.43   16.85
  50   4   0    1.48   17.29
  50   6   0   -1.20   16.87
 -50  -6   0    1.18   15.96
 -50  -6   0   -2.30   16.91
  50   6   0   -2.48   22.27
  50   8   0   19.13   21.94
 -50  -8   0    7.45   22.45
 -50  -8   0   -2.36   17.40
  50   8   0    6.25   18.24
  50  10   0    6.04   16.63
 -50 -10   0   -1.61   23.70
 -50 -10   0    9.00   19.83
  50  10   0   11.66   15.11
  50  12   0   85.44   25.41
 -50 -12   0   99.27   31.84
 -50 -12   0  114.23   32.52
  50  12   0   88.66   30.10
   1   1   1   56.31   12.20
  -1  -1  -1   68.67   12.05
  -1  -1   1   69.01   11.93
   1   1  -1   52.84   12.04
   1  -1  -1   52.30   11.88
  -1   1  -1   70.58   11.97
   1  -1   1   54.04   12.16
   1   3   1  226.26   54.48
  -1  -3  -1  341.75   54.52
  -1  -3   1  386.11   54.60
   1   3  -1  248.00   54.33
   1  -3  -1  243.28   54.29
  -1   3   1  385.25   54.42
  -1   3  -1  371.87   54.50
   1  -3   1  244.40   54.45
   1   5   1  296.88   61.65
  -1  -5  -1  391.45   61.76
  -1  -5   1  423.74   61.67
   1   5  -1  288.30   61.61
   1  -5  -1  277.39   61.48
  -1   5   1  404.80   61.70
  -1   5  -1  427.89   61.76
   1  -5   1  255.67   61.67
   1   7   1  473.63   59.08
  -1  -7  -1  224.27   58.98
  -1  -7   1  221.45   58.90
   1   7  -1  392.21   58.92
   1  -7  -1  414.42   58.80
  -1   7   1  238.08   58.90
  -1   7  -1  181.23   58.79
   1  -7   1  451.10   59.00
   1   9   1  183.73   34.66
  -1  -9  -1  176.57   34.69
  -1  -9   1  189.86   34.72
   1  -9  -1  199.05   34.59
  -1   9   1  199.79   34.58
  -1   9  -1  187.86   34.73
   1  -9   1  190.32   34.73
   1  11   1  193.35   28.93
  -1 -11  -1  122.35   28.88
  -1 -11   1  131.72   28.80
   1  11  -1  175.94   28.74
   1 -11  -1  187.01   28.95
  -1  11   1  136.82   28.75
  -1  11  -1  121.49   28.77
   1 -11   1  175.12   28.92
   1  13   1  295.66   55.35
  -1 -13  -1  300.11   55.43
  -1 -13   1  309.69   55.30
   1  13  -1  281.12   55.30
   1 -13  -1  294.78   55.32
   1 -13  -1  289.43   55.28
  -1  13   1  335.60   55.31
  -1  13  -1  323.62   55.27
   1 -13   1  328.02   55.40
   1  15   1 1402.96  253.60
  -1 -15  -1 1464.50  253.65
  -1 -15   1 1574.49  253.66
   1  15  -1 1388.07  253.54
   1 -15  -1 1539.44  253.71
   1 -15  -1 1496.30  253.63
  -1  15  -1 1218.88  253.47
   1 -15   1 1447.69  253.66
  -1 -17  -1 7988.03 1178.76
   1  17   1 9748.77 1599.11
  -1 -17   1 9999.90 1599.09
   1  17  -1 9193.68 1599.02
   1  17  -1 9793.30 1599.15
   1 -17  -1 9985.56 1599.19
   1 -17  -1 9888.21 1599.15
  -1  17  -1 8401.45 1598.94
   1 -17   1 7138.34 1599.01
   1  19   1 2880.03  486.68
  -1 -19  -1 2433.16  486.51
   1  19  -1 2621.28  486.53
   1  19  -1 3018.01  486.68
   1 -19  -1 3138.86  486.75
   1 -19  -1 2994.36  486.69
  -1  19  -1 2337.05  486.44
   1 -19   1 2820.75  486.63
   1  21   1  219.57   35.66
  -1 -21  -1  195.47   35.49
   1  21  -1  180.01   35.23
   1  21  -1  177.24   35.49
   1 -21  -1  214.89   35.66
   1 -21  -1  182.27   35.38
  -1  21  -1  171.34   35.38
   1 -21   1  195.44   35.46
   1  23   1  132.67   22.56
  -1 -23  -1  133.76   26.92
   1  23  -1  129.10   26.77
   1  23  -1  158.37   26.99
   1 -23  -1  174.46   27.15
   1 -23  -1  133.35   26.69
  -1  23  -1  126.25   26.82
   1 -23   1  152.00   26.97
   1  25   1  487.52   88.81
  -1 -25  -1  521.48   88.75
   1  25  -1  489.88   88.70
   1  25  -1  485.14   88.75
   1 -25  -1  511.86   88.86
   1 -25  -1  477.32   88.64
  -1  25  -1  485.86   88.66
   1 -25   1  499.22   88.87
   1  27   1  486.51   87.80
  -1 -27  -1  505.75   87.67
   1  27  -1  512.00   87.66
   1  27  -1  490.67   87.62
   1 -27  -1  478.80   87.77
   1 -27  -1  494.05   87.60
  -1  27  -1  448.01   87.56
   1 -27   1  492.27   87.81
  -1  29  -1  450.78   97.73
   1  29   1  775.14  129.52
  -1 -29  -1  563.76  129.21
   1  29  -1  767.53  129.31
   1  29  -1  824.03  129.36
   1 -29  -1  816.43  129.51
   1 -29  -1  823.13  129.34
   1 -29   1  837.53  129.56
   1 -31   1  113.04   24.06
   1  31   1  147.07   29.31
  -1 -31  -1  168.31   29.43
   1  31  -1  155.46   29.10
   1  31  -1  132.04   28.80
   1 -31  -1  164.28   29.32
   1 -31  -1  145.12   28.80
  -1  31  -1  174.23   29.33
   1  33   1  169.22   32.92
  -1 -33  -1  186.31   33.14
   1  33  -1  162.16   32.75
   1  33  -1  164.73   32.61
   1 -33  -1  175.09   33.05
   1 -33  -1  160.23   32.54
  -1  33  -1  181.25   32.98
   1 -33   1  171.34   32.66
   1  35   1   11.90    6.67
  -1 -35  -1   10.64    9.64
   1  35  -1    3.65    8.38
   1  35  -1    8.40    7.59
   1 -35  -1   14.68    9.10
   1 -35  -1   11.94    8.30
  -1  35  -1   13.87    9.93
  -1  35  -1   19.76    9.60
   1 -35   1   13.10    5.98
  -1  37  -1  753.19  115.67
   1  37   1  945.67  153.17
  -1 -37  -1  854.49  153.06
   1  37  -1  832.43  152.98
   1  37  -1  873.52  152.92
   1 -37  -1  921.63  153.26
   1 -37  -1  826.41  152.85
  -1  37  -1  884.73  153.09
   1 -37   1  848.40  152.91
   1  39   1  197.27   32.95
  -1 -39  -1  124.83   33.39
  -1 -39  -1  128.61   33.21
   1  39  -1  193.64   33.09
   1  39  -1  176.93   32.94
   1 -39  -1  195.01   33.45
   1 -39  -1  207.01   33.00
  -1  39  -1  143.16   33.36
  -1  39  -1  141.22   33.11
   1 -39   1  194.57   32.74
   1  41   1  634.77  109.86
  -1 -41  -1  649.38  110.17
  -1 -41  -1  592.62  110.02
   1  41  -1  611.65  109.83
   1  41  -1  584.53  109.70
   1 -41  -1  627.42  110.14
   1 -41  -1  627.89  109.75
  -1  41  -1  575.56  109.96
  -1  41  -1  645.42  109.96
   1 -41   1  558.08  109.65
   1 -43  -1  183.48   32.18
   1  43   1  208.99   39.39
  -1 -43  -1  190.00   40.30
  -1 -43  -1  216.86   40.16
   1  43  -1  218.47   39.68
   1  43  -1  179.53   39.41
   1 -43  -1  208.81   40.06
  -1  43  -1  250.17   40.41
  -1  43  -1  207.22   39.94
   1  45   1   23.59    8.86
  -1 -45  -1   11.80   12.82
  -1 -45  -1    9.75   12.15
   1  45  -1   16.77   10.34
   1  45  -1   21.53   10.44
   1 -45  -1   23.00   11.51
   1 -45  -1   19.63   10.44
  -1  45  -1    5.56   12.94
  -1  45  -1   25.75   11.90
  -1 -47  -1   -0.56   10.01
  -1 -47  -1    5.88   11.81
   1  47  -1    1.12    9.90
   1  47  -1   -4.65    9.99
   1 -47  -1    7.05   10.92
   1 -47  -1   13.74    9.88
  -1  47  -1    6.28   12.36
  -1  47  -1    1.53   11.47
  -1 -49  -1  198.20   40.97
  -1 -49  -1  177.59   40.46
   1  49  -1  209.07   39.71
   1  49  -1  224.32   39.81
   1 -49  -1  227.72   40.33
   1 -49  -1  200.36   39.62
  -1  49  -1  191.32   40.19
  -1  49  -1  203.30   40.33
  -1 -51  -1 1206.50  215.88
  -1 -51  -1 1349.22  215.87
   1  51  -1 1073.33  214.97
   1  51  -1 1143.52  215.05
   1 -51  -1 1149.38  215.39
   1 -51  -1 1235.10  215.14
  -1  51  -1 1201.03  215.39
  -1  51  -1 1318.37  215.75
  -1 -53  -1  631.59  111.72
  -1 -53  -1  583.63  111.21
   1  53  -1  612.61  111.05
   1  53  -1  640.26  110.97
   1 -53  -1  650.65  111.88
   1 -53  -1  617.68  110.88
  -1  53  -1  522.74  110.70
  -1  53  -1  619.51  111.19
  -1 -55  -1   30.16   20.88
  -1 -55  -1   31.77   18.00
   1  55  -1   20.43   17.86
   1  55  -1   14.41   13.03
   1 -55  -1   31.80   20.19
   1 -55  -1   24.55   17.94
  -1  55  -1   32.37   17.79
  -1  55  -1   21.60   17.91
  -1 -57  -1    3.32   13.16
  -1 -57  -1    6.19   15.78
   1  57  -1   -0.63   13.35
   1  57  -1    6.23   17.58
   1 -57  -1  -12.91   17.97
   1 -57  -1   -9.95   17.51
  -1  57  -1   11.54   17.22
  -1  57  -1    0.62   17.31
   3   1   1  105.40   20.96
  -3  -1  -1  113.33   20.97
  -3  -1   1  110.99   20.80
   3   1  -1  111.51   20.90
   3  -1  -1  111.31   20.56
  -3   1   1  114.93   20.48
  -3   1  -1  112.90   20.56
   3  -1   1  106.49   20.60
   3   3   1  310.50   47.07
  -3  -3  -1  231.19   46.97
  -3  -3   1  266.38   47.08
   3   3  -1  270.82   46.84
   3  -3  -1  261.22   46.63
  -3   3   1  232.49   46.76
  -3   3  -1  222.01   46.85
   3  -3   1  288.83   46.87
   3   5   1 2211.00  325.21
  -3  -5  -1 1547.97  325.14
  -3  -5   1 1641.61  325.18
   3   5  -1 1954.59  325.08
   3  -5  -1 2080.39  325.02
  -3   5   1 1427.47  325.14
  -3   5  -1 1599.50  325.12
   3  -5   1 2189.02  325.20
   3   7   1 1056.15  240.92
  -3  -7  -1 1689.52  241.05
  -3  -7   1 1682.93  241.09
   3   7  -1 1099.69  240.83
   3  -7  -1 1085.67  240.89
  -3   7   1 1730.64  240.99
  -3   7  -1 1510.09  240.95
   3  -7   1 1132.32  240.99
   3   9   1   82.61   16.41
  -3  -9  -1   83.85   16.77
  -3  -9   1   82.44   16.28
   3   9  -1   82.98   16.08
  -3   9   1   82.00   15.82
  -3   9  -1   86.39   16.17
   3  -9   1   75.74   16.06
   3  11   1   80.03   15.42
  -3 -11  -1   65.32   15.78
  -3 -11   1   69.96   15.41
   3  11  -1   83.14   15.18
   3 -11  -1   87.44   15.19
   3 -11  -1   84.43   15.19
  -3  11  -1   57.82   15.18
   3 -11   1   94.03   15.40
   3  13   1  115.78   20.48
  -3 -13  -1   89.58   20.53
  -3 -13   1  106.34   20.79
   3  13  -1  100.08   20.33
   3 -13  -1  120.48   20.39
   3 -13  -1  119.33   20.30
  -3  13  -1   97.93   20.32
   3 -13   1  106.56   20.60
   3  15   1 1364.53  235.24
  -3 -15  -1 1326.71  235.26
  -3 -15   1 1342.85  235.22
   3  15  -1 1278.57  235.16
   3 -15  -1 1392.19  235.25
   3 -15  -1 1345.34  235.24
  -3  15  -1 1279.32  235.16
   3 -15   1 1324.80  235.26
   3 -17   1 4373.50  760.88
   3  17   1 6201.17 1030.69
  -3 -17  -1 6097.53 1030.74
  -3 -17   1 6136.97 1030.72
   3  17  -1 5763.50 1030.61
   3 -17  -1 6499.10 1030.69
   3 -17  -1 6218.61 1030.63
  -3  17  -1 5527.33 1030.59
   3  19   1 1232.18  208.22
  -3 -19  -1 1175.94  208.29
  -3 -19   1 1248.11  208.24
   3  19  -1 1182.76  208.15
   3  19  -1 1218.08  208.29
   3 -19  -1 1113.56  208.14
   3 -19  -1 1160.72  208.12
  -3  19  -1 1166.04  208.15
   3 -19   1 1081.93  208.27
   3  21   1  164.35   28.25
  -3 -21  -1  138.77   28.39
  -3 -21   1  139.06   28.03
   3  21  -1  134.03   28.01
   3  21  -1  158.17   28.09
   3 -21  -1  152.01   28.05
   3 -21  -1  148.88   27.95
  -3  21  -1  147.32   28.11
   3 -21   1  162.81   28.27
   3  23   1   47.49   10.40
  -3 -23  -1   39.04   11.83
   3  23  -1   43.83   11.02
   3  23  -1   54.85   11.09
   3 -23  -1   63.42   11.23
   3 -23  -1   46.78   10.86
  -3  23  -1   39.06   11.23
   3 -23   1   56.54   11.29
   3  25   1  566.47   94.24
  -3 -25  -1  484.32   94.19
   3  25  -1  522.11   94.05
   3  25  -1  566.03   94.27
   3 -25  -1  570.18   94.11
   3 -25  -1  541.65   94.02
  -3  25  -1  416.64   93.96
   3 -25   1  551.39   94.25
  -3 -27  -1  624.57  124.99
   3  27   1 1146.37  166.17
   3  27  -1  958.06  165.92
   3  27  -1 1006.14  166.10
   3 -27  -1 1009.22  165.97
   3 -27  -1  948.99  165.87
  -3  27  -1  750.08  165.78
   3 -27   1 1060.01  166.12
   3  29   1 1971.54  332.50
  -3 -29  -1 2280.42  332.62
   3  29  -1 1702.74  332.27
   3  29  -1 1651.20  332.32
   3 -29  -1 1677.02  332.29
   3 -29  -1 1678.62  332.20
  -3  29  -1 2237.99  332.54
  -3  29  -1 2265.80  332.47
   3 -29   1 1425.00  332.24
   3  31   1  364.60   56.68
  -3 -31  -1  288.99   56.67
   3  31  -1  339.92   56.45
   3  31  -1  301.78   56.31
   3 -31  -1  310.68   56.33
   3 -31  -1  270.72   56.10
  -3  31  -1  302.14   56.64
  -3  31  -1  291.58   56.32
   3 -31   1  312.34   56.34
  -3 -33  -1   93.49   16.51
  -3  33  -1   85.68   15.79
   3  33   1  106.84   18.74
   3  33  -1  105.70   18.43
   3  33  -1   74.76   17.95
   3 -33  -1   73.89   18.25
   3 -33  -1   65.96   17.91
  -3  33  -1   94.96   19.17
   3 -33   1   69.61   17.70
  -3  35  -1   14.10    8.10
   3 -35   1    6.28    6.20
   3  35   1   18.75    8.50
  -3 -35  -1   12.11   10.29
   3  35  -1   12.95    8.58
   3  35  -1    9.86    7.91
   3 -35  -1   19.73    8.96
   3 -35  -1   17.34    8.42
  -3  35  -1   15.28    9.28
   3  37   1  580.77  106.87
  -3 -37  -1  711.73  107.18
   3  37  -1  556.01  106.65
   3  37  -1  534.40  106.60
   3 -37  -1  575.28  106.82
   3 -37  -1  519.28  106.52
  -3  37  -1  658.85  107.00
  -3  37  -1  682.74  106.87
   3 -37   1  527.29  106.58
   3  39   1  207.42   46.94
  -3 -39  -1  338.84   47.98
   3  39  -1  194.78   46.86
   3  39  -1  192.65   46.71
   3 -39  -1  190.43   47.11
   3 -39  -1  182.80   46.75
  -3  39  -1  393.14   48.04
  -3  39  -1  310.91   47.45
   3  41  -1  518.87   67.84
  -3  41  -1  361.52   67.49
   3  41   1  525.69   87.58
  -3 -41  -1  402.70   87.58
  -3 -41  -1  416.65   87.69
   3  41  -1  552.65   87.57
   3 -41  -1  595.29   87.95
   3 -41  -1  566.44   87.54
  -3  41  -1  413.24   87.59
  -3  43  -1   79.52   17.08
   3  43   1   96.74   18.23
  -3 -43  -1   70.78   19.89
  -3 -43  -1   81.37   20.01
   3  43  -1   87.41   18.72
   3  43  -1   85.08   18.70
   3 -43  -1   77.52   19.27
   3 -43  -1   68.45   18.47
  -3  43  -1   84.75   19.23
   3  45   1   21.59    8.66
  -3 -45  -1   10.42   12.38
  -3 -45  -1   12.34   12.24
   3  45  -1   20.02   10.28
   3  45  -1   18.32   10.18
   3 -45  -1   32.08   11.68
   3 -45  -1   13.43   10.22
  -3  45  -1   10.26   12.67
  -3  45  -1   14.33   11.40
   3  47   1   14.96    8.24
  -3 -47  -1   14.07   12.81
  -3 -47  -1    2.49   12.30
   3  47  -1   13.68    9.80
   3  47  -1   21.53   10.49
   3 -47  -1   24.70   11.54
   3 -47  -1   13.71   10.17
  -3  47  -1    8.23   12.56
  -3  47  -1   -1.85   11.34
  -3 -49  -1  210.10   41.34
  -3 -49  -1  210.42   40.98
   3  49  -1  167.87   39.60
   3  49  -1  221.17   40.07
   3 -49  -1  207.81   40.64
   3 -49  -1  210.14   40.20
  -3  49  -1  207.50   40.49
  -3  49  -1  212.65   40.49
  -3 -51  -1 1233.86  195.11
  -3 -51  -1 1237.61  194.85
   3  51  -1  843.58  193.59
   3  51  -1  975.53  193.84
   3 -51  -1  959.65  194.19
   3 -51  -1  941.51  193.87
  -3  51  -1 1160.43  194.31
  -3  51  -1 1363.28  194.77
  -3 -53  -1  524.53  103.59
  -3 -53  -1  518.46  102.78
   3  53  -1  588.51  102.99
   3  53  -1  610.55  102.87
   3 -53  -1  662.84  103.99
   3 -53  -1  597.35  102.96
  -3  53  -1  445.80  102.42
  -3  53  -1  559.98  102.97
  -3 -55  -1   35.75   21.00
  -3 -55  -1   17.37   14.85
   3  55  -1    7.85   18.05
   3  55  -1   38.97   17.29
   3 -55  -1   35.49   20.64
   3 -55  -1   30.58   18.35
  -3  55  -1   13.67   17.90
  -3  55  -1   19.52   17.58
  -3 -57  -1    1.29   10.59
  -3 -57  -1   -2.66   20.50
   3  57  -1    9.56   17.58
   3  57  -1    9.72   16.79
   3 -57  -1   12.94   20.36
   3 -57  -1    7.97   18.41
  -3  57  -1   14.26   18.09
  -3  57  -1    1.10   17.41
   5   1   1  122.50   26.47
  -5  -1  -1  163.58   26.70
  -5  -1   1  161.97   26.58
   5   1  -1  124.68   26.62
  -5   1  -1  180.99   26.19
   5  -1   1  102.76   26.23
   5   3   1  450.98   72.32
  -5  -3  -1  366.20   72.20
  -5  -3   1  424.60   72.43
   5   3  -1  405.35   72.15
  -5   3  -1  386.57   72.13
   5  -3   1  396.01   72.22
   5   5   1 4443.42  845.14
  -5  -5  -1 5215.08  845.12
  -5  -5   1 5893.12  845.26
   5   5  -1 4298.71  845.03
  -5   5  -1 4244.15  845.08
   5   7   1 2600.48  380.87
  -5  -7  -1 1792.66  380.79
  -5  -7   1 1827.20  380.74
   5   7  -1 2351.87  380.72
   5  -7  -1 2165.31  380.76
   5  -7  -1 2457.50  380.70
  -5   7  -1 1580.35  380.67
   5  -7   1 2547.70  380.88
   5   9   1   41.10    9.51
  -5  -9  -1   36.67   10.24
  -5  -9   1   38.33    9.49
   5   9  -1   49.11    9.59
   5  -9  -1   43.92    8.81
   5  -9  -1   39.79    8.59
  -5   9  -1   33.56    8.91
   5  -9   1   42.71    8.98
   5  11   1   58.54   10.53
  -5 -11  -1   33.07   11.01
  -5 -11   1   32.16   10.11
   5  11  -1   52.02   10.08
   5 -11  -1   49.37    9.45
   5 -11  -1   49.32    9.51
  -5  11  -1   28.44    9.74
   5 -11   1   56.45    9.96
   5  13   1   36.91    9.60
  -5 -13  -1   57.26   10.96
  -5 -13   1   57.36    9.78
   5  13  -1   32.05    9.27
   5 -13  -1   38.57    8.99
   5 -13  -1   36.75    8.87
  -5  13  -1   41.12    9.39
   5 -13   1   32.68    9.37
   5  15   1  663.25  107.63
  -5 -15  -1  546.93  107.64
  -5 -15   1  583.93  107.68
   5  15  -1  648.46  107.58
   5 -15  -1  656.78  107.57
   5 -15  -1  624.10  107.51
  -5  15  -1  538.40  107.54
   5 -15   1  560.68  107.71
   5  17   1 2526.34  434.67
  -5 -17  -1 2376.26  434.67
  -5 -17   1 2708.26  434.70
   5  17  -1 2428.80  434.62
   5 -17  -1 2358.69  434.61
  -5  17  -1 2412.56  434.63
   5 -17   1 2434.43  434.81
   5  19   1  581.76   91.52
  -5 -19  -1  401.54   91.41
  -5 -19   1  430.90   91.43
   5  19  -1  567.72   91.44
   5 -19  -1  581.31   91.49
   5 -19  -1  549.90   91.33
  -5  19  -1  404.67   91.33
   5 -19   1  578.96   91.60
  -5 -21  -1   87.19   14.63
   5  21   1   77.85   16.46
  -5 -21   1  100.59   16.43
   5  21  -1   77.91   16.30
   5  21  -1   69.75   16.19
   5 -21  -1   81.01   16.16
   5 -21  -1   67.61   16.03
  -5  21  -1   87.06   16.43
   5 -21   1   74.00   16.22
   5  23   1   85.65   16.02
  -5 -23  -1   55.78   16.12
  -5 -23   1   71.67   15.64
   5  23  -1   81.93   15.81
   5  23  -1   82.90   15.61
   5 -23  -1   91.22   15.71
   5 -23  -1   78.45   15.49
  -5  23  -1   75.25   15.64
  -5  23  -1   66.33   15.76
   5 -23   1   72.02   15.63
   5  25   1  269.48   51.85
  -5 -25  -1  336.60   52.17
   5  25  -1  248.19   51.73
   5  25  -1  269.36   51.80
   5 -25  -1  227.23   51.66
   5 -25  -1  244.58   51.58
  -5  25  -1  332.69   51.90
  -5  25  -1  340.62   51.92
   5 -25   1  291.04   51.83
  -5  27  -1  705.59  108.47
   5  27   1  816.84  143.52
  -5 -27  -1  956.03  143.71
   5  27  -1  729.83  143.34
   5  27  -1  789.15  143.51
   5 -27  -1  775.33  143.35
   5 -27  -1  735.11  143.23
  -5  27  -1  965.37  143.55
   5 -27   1  799.58  143.47
   5  29   1 3949.87  625.69
  -5 -29  -1 3232.24  625.61
   5  29  -1 3892.64  625.56
   5  29  -1 4147.28  625.80
   5 -29  -1 3542.78  625.49
   5 -29  -1 3444.21  625.40
  -5  29  -1 3073.60  625.47
  -5  29  -1 2982.28  625.40
   5 -29   1 3759.86  625.66
   5  31   1  767.51  129.27
  -5 -31  -1  757.54  129.47
   5  31  -1  723.83  129.11
   5  31  -1  736.54  129.26
   5 -31  -1  646.89  129.02
   5 -31  -1  646.22  128.94
  -5  31  -1  746.47  129.32
  -5  31  -1  799.22  129.22
   5 -31   1  692.91  129.18
  -5  33  -1  113.11   25.93
   5 -33   1  159.66   25.92
   5  33   1  194.84   31.59
  -5 -33  -1  145.67   31.95
   5  33  -1  185.75   31.32
   5  33  -1  183.92   31.33
   5 -33  -1  183.59   31.70
   5 -33  -1  171.64   31.22
  -5  33  -1  130.43   31.27
   5  35   1   43.32   11.61
  -5 -35  -1   29.49   12.84
   5  35  -1   37.26   11.12
   5  35  -1   36.57   10.96
   5 -35  -1   42.31   11.42
   5 -35  -1   44.14   11.26
  -5  35  -1   37.62   13.54
  -5  35  -1   37.87   11.61
  -5  37  -1  504.96   88.05
   5  37   1  794.19  115.97
  -5 -37  -1  572.44  115.78
   5  37  -1  712.05  115.56
   5  37  -1  642.74  115.48
   5 -37  -1  672.62  115.58
   5 -37  -1  678.81  115.49
  -5  37  -1  592.45  115.68
   5  39   1 1064.52  159.75
  -5 -39  -1  803.78  159.57
   5  39  -1  923.18  159.35
   5  39  -1  957.61  159.41
   5 -39  -1  932.07  159.47
   5 -39  -1  932.37  159.32
  -5  39  -1  805.62  159.38
  -5  39  -1  748.67  159.21
   5  41   1  229.71   44.32
  -5 -41  -1  378.74   45.37
   5  41  -1  248.72   55.44
   5  41  -1  259.51   55.46
   5 -41  -1  268.36   55.77
   5 -41  -1  229.70   55.44
  -5  41  -1  400.92   56.36
  -5  41  -1  383.58   56.09
   5  43   1   47.89   14.85
  -5 -43  -1   70.16   17.30
   5  43  -1   53.38   14.86
   5  43  -1   53.43   15.22
   5 -43  -1   61.50   16.08
   5 -43  -1   51.52   15.41
  -5  43  -1   80.74   17.23
  -5  43  -1   68.19   16.47
   5  45  -1   40.28   10.60
   5  45   1   42.16   11.08
  -5 -45  -1   26.77   13.87
  -5 -45  -1   26.61   13.82
   5  45  -1   35.76   11.33
   5 -45  -1   39.01   13.01
   5 -45  -1   42.41   12.61
  -5  45  -1   25.22   13.97
  -5  45  -1   22.09   13.00
   5  47   1   53.04   14.54
  -5 -47  -1   64.42   17.60
  -5 -47  -1   60.65   17.89
   5  47  -1   57.45   15.13
   5  47  -1   59.80   15.79
   5 -47  -1   65.86   16.74
   5 -47  -1   53.44   16.34
  -5  47  -1   61.26   16.37
  -5  47  -1   60.22   16.77
  -5 -49  -1  370.66   55.23
   5  49   1  405.87   68.48
  -5 -49  -1  362.86   69.27
   5  49  -1  332.35   68.34
   5  49  -1  412.12   68.73
   5 -49  -1  370.30   69.18
   5 -49  -1  406.46   68.99
  -5  49  -1  287.14   68.19
  -5  49  -1  403.25   69.00
   5  51   1  650.16   84.93
  -5 -51  -1  458.95   85.02
  -5 -51  -1  448.15  109.62
   5  51  -1  703.02  110.36
   5  51  -1  690.40  110.09
   5 -51  -1  670.28  110.53
   5 -51  -1  727.54  110.20
  -5  51  -1  503.34  109.88
  -5  51  -1  570.94  109.99
  -5 -53  -1  464.15   72.81
  -5 -53  -1  308.27   70.49
   5  53  -1  350.14   71.11
   5  53  -1  372.12   70.90
   5 -53  -1  403.50   72.36
   5 -53  -1  384.86   71.42
  -5  53  -1  344.28   71.20
  -5  53  -1  402.36   71.19
   5  55  -1   71.53   18.88
  -5 -55  -1   87.11   25.99
  -5 -55  -1   57.28   20.75
   5  55  -1   71.58   23.11
   5 -55  -1   67.33   25.27
   5 -55  -1   82.62   24.00
  -5  55  -1   80.89   23.84
  -5  55  -1   78.33   22.68
  -5 -57  -1    3.50   10.28
  -5 -57  -1    0.39   20.72
   5  57  -1   10.10   17.52
   5  57  -1   -2.77   16.68
   5 -57  -1   -5.13   20.54
   5 -57  -1    9.14   22.07
  -5  57  -1   12.10   18.44
  -5  57  -1    5.30   16.78
   7   1   1  483.27   80.22
  -7  -1  -1  411.95   80.27
  -7  -1   1  419.10   80.40
   7   1  -1  550.04   80.37
  -7   1  -1  362.54   80.06
   7   3  -1  698.40  107.72
   7   3   1  805.32  143.48
  -7  -3  -1  824.32  143.45
  -7  -3   1  960.38  143.74
  -7   3  -1  743.80  143.38
  -7   3  -1  856.23  143.38
   7   5   1 8311.82 1310.89
  -7  -5  -1 6573.87 1310.75
  -7  -5   1 7352.77 1310.88
   7   5  -1 7646.96 1310.75
   7   7   1 2727.02  452.67
  -7  -7  -1 3038.67  452.69
  -7  -7   1 2899.24  452.72
   7   7  -1 2590.34  452.63
   7  -7  -1 2363.24  452.56
   7  -7  -1 2350.78  452.43
  -7   7  -1 2375.80  452.66
  -7   7  -1 2457.02  452.61
   7  -7   1 2142.46  452.68
   7   9   1   89.59   18.33
  -7  -9  -1  112.39   18.51
  -7  -9   1  105.18   17.90
   7   9  -1   83.39   17.99
   7  -9  -1   91.57   17.64
   7  -9  -1   79.99   17.43
  -7   9  -1  103.31   17.77
  -7   9  -1   91.60   17.74
   7  -9   1   77.38   17.70
   7  11   1  124.27   22.44
  -7 -11  -1  123.11   22.83
  -7 -11   1  136.06   22.57
   7  11  -1  127.78   22.47
   7 -11  -1  105.96   21.90
  -7  11   1  117.08   22.09
  -7  11  -1  121.99   22.32
  -7  11  -1  108.79   22.13
   7 -11   1   87.47   22.09
   7  13  -1   39.51    8.83
   7  13   1   57.61   10.39
  -7 -13  -1   39.35   10.96
  -7 -13   1   39.88    9.91
   7 -13  -1   46.35    9.34
   7 -13  -1   41.49    9.26
  -7  13   1   50.43    9.18
  -7  13  -1   39.18    9.88
  -7  13  -1   36.38    9.51
   7 -13   1   36.78    9.38
   7  15   1  654.55  112.59
  -7 -15  -1  705.49  112.84
  -7 -15   1  635.02  112.77
   7  15  -1  600.10  112.46
   7 -15  -1  579.25  112.49
   7 -15  -1  603.69  112.39
  -7  15   1  737.21  112.69
  -7  15  -1  586.80  112.59
  -7  15  -1  597.83  112.57
   7 -15   1  646.67  112.70
   7  17   1  234.69   34.79
  -7 -17   1  158.25   34.74
   7  17  -1  196.90   34.65
   7 -17  -1  211.79   34.57
   7 -17  -1  195.23   34.44
  -7  17   1  173.72   34.61
  -7  17  -1  166.21   34.62
  -7  17  -1  133.33   34.58
   7 -17   1  213.39   34.75
  -7 -19  -1  171.76   24.39
   7  19   1  134.66   29.34
  -7 -19   1  199.73   29.52
   7  19  -1  117.66   29.23
   7 -19  -1  113.15   29.22
   7 -19  -1  114.38   28.98
  -7  19   1  239.38   29.51
  -7  19  -1  190.29   29.45
  -7  19  -1  199.00   29.48
   7 -19   1   99.17   29.18
   7  21   1   91.20   15.53
  -7 -21  -1   50.02   15.53
  -7 -21   1   73.13   15.45
   7  21  -1   95.29   15.37
   7 -21  -1   76.27   14.99
   7 -21  -1   73.93   14.91
  -7  21   1   66.35   14.99
  -7  21  -1   63.95   15.14
  -7  21  -1   57.12   15.19
   7 -21   1   87.98   15.24
  -7 -23  -1    4.86    4.88
   7  23   1    2.46    5.87
  -7 -23   1    5.11    5.33
   7  23  -1   -0.61    5.57
   7  23  -1   -1.14    4.84
   7 -23  -1    1.58    4.85
   7 -23  -1   -0.47    4.75
  -7  23  -1    5.83    5.24
  -7  23  -1    4.83    5.56
   7 -23   1    0.82    4.72
   7 -25   1  294.46   47.94
   7  25   1  435.12   61.17
  -7 -25  -1  256.50   60.98
  -7 -25   1  293.05   60.94
   7  25  -1  404.78   61.06
   7  25  -1  394.79   61.10
   7 -25  -1  369.58   61.02
   7 -25  -1  369.50   60.85
  -7  25  -1  306.15   60.95
  -7  25  -1  233.54   60.64
   7  27  -1  744.72   91.46
   7  27   1  797.73  120.02
  -7 -27  -1  613.28  120.06
  -7 -27   1  517.53  119.65
   7  27  -1  825.14  119.97
   7 -27  -1  760.50  120.01
   7 -27  -1  704.29  119.74
  -7  27  -1  550.98  119.76
  -7  27  -1  533.33  119.72
   7  29   1 3004.88  504.38
  -7 -29  -1 3473.51  504.54
   7  29  -1 2439.20  504.11
   7  29  -1 2527.63  504.28
   7 -29  -1 2434.87  504.15
   7 -29  -1 2357.03  504.01
  -7  29  -1 3588.08  504.47
  -7  29  -1 3060.99  504.28
   7  31   1  760.19  122.01
  -7 -31  -1  726.16  122.13
   7  31  -1  634.12  121.68
   7  31  -1  646.29  121.78
   7 -31  -1  646.66  121.72
   7 -31  -1  639.85  121.58
  -7  31  -1  736.07  122.00
  -7  31  -1  665.54  121.79
   7  33   1   98.34   20.61
  -7 -33  -1  163.33   25.86
   7  33  -1   92.58   24.08
   7  33  -1  103.10   24.46
   7 -33  -1  112.48   25.21
   7 -33  -1   93.97   24.12
  -7  33  -1  172.04   25.71
  -7  33  -1  146.28   24.75
   7  35   1   21.26    8.99
  -7 -35  -1   24.19   11.89
   7  35  -1   17.48    8.44
   7  35  -1   19.90    8.74
   7 -35  -1   21.24   11.07
   7 -35  -1   11.15    8.74
  -7  35  -1   22.19   11.35
  -7  35  -1   19.26    9.44
   7  37   1  335.64   49.91
  -7 -37  -1  397.88   63.83
   7  37  -1  325.60   62.89
   7  37  -1  306.57   62.86
   7 -37  -1  343.95   63.38
   7 -37  -1  298.76   62.87
  -7  37  -1  373.19   63.38
  -7  37  -1  376.67   63.17
   7  39   1 1269.79  227.85
  -7 -39  -1 1576.61  228.26
   7  39  -1 1133.42  227.57
   7  39  -1 1176.67  227.60
   7 -39  -1 1145.74  227.70
   7 -39  -1 1215.87  227.70
  -7  39  -1 1351.45  227.76
  -7  39  -1 1412.04  227.83
   7  41   1 1160.02  174.42
  -7 -41  -1  933.71  174.36
   7  41  -1  986.61  173.98
   7  41  -1 1004.99  174.04
   7 -41  -1 1040.63  174.15
   7 -41  -1 1023.21  174.04
  -7  41  -1  812.53  173.79
  -7  41  -1  884.34  173.95
  -7 -43  -1    3.21    8.98
   7  43  -1    3.30    6.13
   7  43   1    4.16    8.17
   7  43  -1    5.27    8.09
   7 -43  -1    8.47    9.44
   7 -43  -1   -0.55   10.01
  -7  43  -1    4.81    8.68
  -7  43  -1   -1.67    9.34
   7 -45  -1   37.71   12.34
   7  45   1   44.56   13.05
  -7 -45  -1   45.96   16.25
   7  45  -1   52.38   13.11
   7  45  -1   52.12   13.11
   7 -45  -1   44.66   14.21
  -7  45  -1   43.33   13.48
  -7  45  -1   47.31   14.33
   7  47   1   59.15   12.87
  -7 -47  -1   40.06   14.15
  -7 -47  -1   44.22   17.19
   7  47  -1   51.65   14.30
   7  47  -1   59.17   15.09
   7 -47  -1   65.89   15.85
   7 -47  -1   66.69   16.02
  -7  47  -1   44.77   14.73
  -7  47  -1   45.90   15.84
   7  49   1  354.85   73.50
  -7 -49  -1  397.60   74.50
  -7 -49  -1  442.49   74.86
   7  49  -1  357.10   73.64
   7  49  -1  396.09   73.88
   7 -49  -1  454.95   75.64
   7 -49  -1  409.12   74.63
  -7  49  -1  369.99   73.85
  -7  49  -1  448.96   74.36
  -7 -51  -1  243.81   38.30
   7  51   1  201.92   46.10
  -7 -51  -1  237.16   47.27
   7  51  -1  201.41   47.20
   7  51  -1  203.50   46.50
   7 -51  -1  219.05   47.72
   7 -51  -1  219.89   47.17
  -7  51  -1  306.81   48.04
  -7  51  -1  315.23   47.48
  -7  53  -1  285.89   47.07
   7  53   1  317.10   57.96
  -7 -53  -1  242.79   58.51
  -7 -53  -1  231.58   57.97
   7  53  -1  343.78   59.03
   7  53  -1  361.35   58.57
   7 -53  -1  371.75   60.42
   7 -53  -1  341.63   60.53
  -7  53  -1  249.83   58.97
  -7 -55  -1  105.81   31.95
  -7 -55  -1   91.66   27.90
   7  55  -1  162.04   30.05
   7  55  -1  140.67   29.18
   7 -55  -1  123.61   31.94
   7 -55  -1  172.25   33.30
  -7  55  -1   61.13   29.71
  -7  55  -1  117.50   29.13
  -7 -57  -1   -3.80   21.25
  -7  57  -1   -5.54   18.62
   9   1   1  417.40   83.49
  -9  -1  -1  475.84   83.65
  -9  -1   1  492.17   83.76
   9   1  -1  448.11   83.60
  -9   1  -1  506.77   83.34
  -9   1  -1  494.76   83.57
   9   3   1  445.87   71.49
  -9  -3  -1  406.10   71.56
  -9  -3   1  397.66   71.70
   9   3  -1  407.01   71.40
  -9   3  -1  365.06   71.25
  -9   3  -1  347.45   71.38
   9   5   1 4750.75  806.68
  -9  -5  -1 4299.28  806.54
  -9  -5   1 4894.49  806.72
   9   5  -1 4625.99  806.60
  -9   5  -1 4653.08  806.64
  -9   5  -1 4279.95  806.67
   9   7   1 3062.25  481.34
  -9  -7  -1 2662.03  481.25
  -9  -7   1 2736.94  481.40
   9   7  -1 2900.17  481.25
   9  -7  -1 2903.28  481.11
  -9   7   1 2935.92  481.31
  -9   7  -1 2280.71  481.25
  -9   7  -1 2274.42  481.29
   9   9   1  126.95   18.62
  -9  -9  -1   75.76   18.43
  -9  -9   1   82.17   18.03
   9   9  -1  110.71   18.15
   9  -9  -1  105.30   17.42
  -9   9   1   88.24   17.54
  -9   9  -1   69.46   17.68
  -9   9  -1   68.90   17.54
   9  11   1   69.86   15.62
  -9 -11  -1   82.93   16.14
  -9 -11   1   86.19   15.83
   9  11  -1   66.31   15.61
   9 -11  -1   70.64   15.00
  -9  11   1   97.56   15.21
  -9  11  -1   69.54   15.17
  -9  11  -1   83.37   15.25
   9  13   1  196.91   36.31
  -9 -13  -1  188.86   36.58
  -9 -13   1  186.72   36.40
   9  13  -1  191.68   36.25
  -9  13   1  213.53   36.15
  -9  13  -1  210.74   36.21
  -9  13  -1  191.51   36.23
   9  15   1  396.43   69.70
  -9 -15  -1  402.26   69.83
  -9 -15   1  434.30   69.81
   9  15  -1  347.71   69.46
   9 -15  -1  338.05   69.27
  -9  15   1  480.59   69.71
  -9  15  -1  371.90   69.53
  -9  15  -1  360.87   69.59
   9  17   1  208.00   38.20
  -9 -17  -1  227.36   38.69
  -9 -17   1  219.88   38.49
   9  17  -1  208.91   38.13
   9 -17  -1  173.25   37.90
  -9  17   1  219.99   38.15
  -9  17  -1  183.73   38.10
  -9  17  -1  228.38   38.25
   9  19   1  443.83   63.36
  -9 -19  -1  345.41   63.63
  -9 -19   1  354.88   63.34
   9  19  -1  349.05   63.18
   9 -19  -1  344.92   63.11
   9 -19  -1  402.81   63.05
  -9  19   1  293.29   63.19
  -9  19  -1  279.75   63.15
  -9  19  -1  316.99   63.24
   9  21   1   47.71    9.88
  -9 -21  -1   37.14   11.46
  -9 -21   1   34.58    9.71
   9  21  -1   44.11    9.63
   9 -21  -1   36.33    8.88
   9 -21  -1   33.92    8.84
  -9  21   1   44.01    9.01
  -9  21  -1   29.46    9.44
  -9  21  -1   34.15    9.33
   9  23   1  117.29   19.67
  -9 -23  -1   93.40   20.62
  -9 -23   1   95.59   19.70
   9  23  -1  110.84   19.60
   9 -23  -1   91.47   19.21
   9 -23  -1   92.94   19.09
  -9  23   1  105.08   19.34
  -9  23  -1   85.81   19.43
  -9  23  -1   90.26   19.48
   9  25   1  147.08   30.42
  -9 -25  -1  160.92   30.80
  -9 -25   1  212.21   30.70
   9  25  -1  149.73   30.36
   9  25  -1  127.08   30.29
   9 -25  -1  110.42   30.12
   9 -25  -1  115.21   30.00
  -9  25   1  224.78   30.57
  -9  25  -1  185.29   30.46
  -9  25  -1  189.36   30.60
  -9 -27  -1  844.16  114.21
   9  27   1  827.60  150.67
  -9 -27   1 1046.81  151.04
   9  27  -1  861.15  150.61
   9  27  -1  824.22  150.72
   9 -27  -1  722.13  150.53
   9 -27  -1  733.09  150.38
  -9  27   1  952.47  150.89
  -9  27  -1  808.58  150.54
  -9  27  -1  873.80  150.66
   9  29   1 2238.08  329.50
  -9 -29  -1 1890.14  329.48
  -9 -29   1 1770.24  329.37
   9  29  -1 2030.12  329.32
   9  29  -1 1970.91  329.39
   9 -29  -1 1818.29  329.30
   9 -29  -1 1727.52  329.09
  -9  29   1 1785.84  329.42
  -9  29  -1 1803.25  329.23
  -9  29  -1 1599.43  329.21
  -9  31  -1  269.18   42.51
   9  31   1  323.83   54.09
  -9 -31  -1  329.11   54.44
   9  31  -1  269.58   53.63
   9  31  -1  311.84   53.82
   9 -31  -1  280.71   53.84
   9 -31  -1  244.94   53.55
  -9  31  -1  321.34   54.06
   9  33   1  153.99   24.55
  -9 -33  -1  110.64   25.05
   9  33  -1  124.39   23.77
   9  33  -1  126.65   23.87
   9 -33  -1  132.61   25.01
   9 -33  -1  118.39   23.96
  -9  33  -1  102.50   24.64
  -9  33  -1   91.88   23.93
   9  35   1   71.44   15.12
  -9 -35  -1   51.08   16.48
   9  35  -1   75.68   14.45
   9  35  -1   66.25   14.79
   9 -35  -1   69.76   16.31
   9 -35  -1   61.33   14.90
  -9  35  -1   40.16   15.11
  -9  35  -1   57.13   14.91
   9  37  -1  315.18   47.55
   9  37   1  382.10   60.36
  -9 -37  -1  308.74   60.76
   9  37  -1  336.67   60.11
   9 -37  -1  378.41   60.75
   9 -37  -1  319.37   60.16
  -9  37  -1  274.12   59.97
  -9  37  -1  316.30   60.25
   9  39   1 2362.01  367.22
  -9 -39  -1 1914.66  367.09
   9  39  -1 2112.97  366.92
   9  39  -1 2016.38  366.89
   9 -39  -1 2315.94  367.14
   9 -39  -1 2192.42  366.94
  -9  39  -1 1738.87  366.69
  -9  39  -1 1982.80  366.92
   9  41  -1 1572.44  238.24
  -9  41  -1 1494.76  238.12
   9  41   1 2042.16  319.59
  -9 -41  -1 2084.43  319.68
   9  41  -1 1705.29  319.14
   9 -41  -1 1852.36  319.39
   9 -41  -1 1844.59  319.25
  -9  41  -1 1906.48  319.33
   9  43   1   80.37   13.85
  -9 -43  -1   43.19   16.11
   9  43  -1   45.94   13.05
   9  43  -1   50.53   11.89
   9 -43  -1   45.76   14.85
   9 -43  -1   47.74   14.45
  -9  43  -1   31.52   13.54
  -9  43  -1   35.53   13.72
   9  45   1   80.50   19.41
  -9 -45  -1   95.90   21.92
   9  45  -1   88.04   19.33
   9  45  -1   76.30   19.33
   9 -45  -1   80.49   21.06
   9 -45  -1   89.42   20.60
  -9  45  -1   88.64   19.89
  -9  45  -1   96.09   20.14
   9  47   1  221.74   41.35
  -9 -47  -1  233.00   42.87
   9  47  -1  200.87   41.23
   9  47  -1  195.11   41.18
   9 -47  -1  239.25   43.48
   9 -47  -1  249.19   43.29
  -9  47  -1  207.54   41.68
  -9  47  -1  186.56   41.51
  -9  49  -1  600.60   84.27
   9  49   1  569.56  108.45
  -9 -49  -1  450.36  108.92
  -9 -49  -1  528.83  109.44
   9  49  -1  621.41  108.80
   9  49  -1  695.41  109.02
   9 -49  -1  738.00  110.24
   9 -49  -1  710.74  110.06
  -9  49  -1  497.41  108.70
   9  51  -1   50.08   13.45
   9  51   1   58.88   14.93
  -9 -51  -1    0.90   16.57
  -9 -51  -1    9.52   14.95
   9  51  -1   52.17   17.19
   9 -51  -1   55.48   19.69
   9 -51  -1   59.01   18.99
  -9  51  -1    7.81   18.35
  -9  51  -1   15.01   16.38
   9  53   1  318.41   64.22
  -9 -53  -1  286.05   65.01
  -9 -53  -1  286.81   64.65
   9  53  -1  355.06   65.14
   9  53  -1  352.36   64.69
   9 -53  -1  362.82   66.75
   9 -53  -1  374.17   67.18
  -9  53  -1  410.94   65.88
  -9  53  -1  333.62   65.02
   9  55   1  115.70   23.24
  -9 -55  -1  111.06   29.10
  -9 -55  -1   91.82   27.74
   9  55  -1  124.05   28.77
   9  55  -1  124.52   28.40
   9 -55  -1  102.28   31.97
   9 -55  -1  141.29   33.41
  -9  55  -1  142.31   30.66
  -9  55  -1  135.40   29.24
 -11  -1   1  134.17   24.81
  11   1   1  221.67   30.29
 -11  -1  -1  124.36   30.37
  11   1  -1  214.17   30.51
  11  -1  -1  173.99   29.91
 -11   1   1  128.18   29.69
 -11   1  -1  132.14   29.81
  11   3   1  544.17   94.94
 -11  -3  -1  556.44   95.05
 -11  -3   1  593.06   95.23
  11   3  -1  503.70   94.83
 -11   3  -1  501.35   94.73
  11  -3   1  504.99   94.88
 -11  -5   1 3993.00  528.47
  11   5   1 4560.17  714.84
 -11  -5  -1 4177.22  714.73
  11   5  -1 4208.86  714.77
 -11   5  -1 4095.28  714.71
 -11   5  -1 3784.23  714.84
  11  -5   1 3385.21  714.75
  11   7   1 3591.86  571.90
 -11  -7  -1 2884.77  571.75
 -11  -7   1 3598.45  572.03
  11   7  -1 3317.67  571.76
  11  -7  -1 3140.87  571.54
 -11   7   1 3554.99  571.72
 -11   7  -1 2716.25  571.74
  11   9   1  146.22   27.01
 -11  -9  -1  146.28   27.10
 -11  -9   1  140.01   26.92
  11   9  -1  134.46   26.83
  11  -9  -1  114.26   26.22
 -11   9   1  154.13   26.32
 -11   9  -1  145.87   26.51
 -11   9  -1  165.87   26.72
  11  11   1  338.86   56.41
 -11 -11  -1  282.61   56.33
 -11 -11   1  325.12   56.41
  11  11  -1  303.51   56.14
  11 -11  -1  291.86   55.92
 -11  11   1  348.49   56.02
 -11  11  -1  254.46   56.04
 -11  11  -1  355.03   56.30
  11  13   1  198.33   34.87
 -11 -13  -1  197.96   35.17
 -11 -13   1  183.04   35.05
  11  13  -1  190.95   34.88
  11 -13  -1  146.91   34.42
 -11  13   1  214.22   34.65
 -11  13  -1  193.52   34.75
 -11  13  -1  189.53   34.77
  11  15   1  758.28   96.60
 -11 -15  -1  440.77   96.49
 -11 -15   1  450.41   96.41
  11  15  -1  654.02   96.43
  11 -15  -1  630.21   96.18
 -11  15   1  483.35   96.32
 -11  15  -1  423.18   96.21
 -11  15  -1  432.64   96.28
 -11 -17  -1  552.80   82.30
  11  17  -1  457.08   81.77
  11  17   1  620.97  107.95
 -11 -17   1  700.02  108.17
  11 -17  -1  549.06  107.74
 -11  17   1  797.18  108.12
 -11  17  -1  643.42  107.86
 -11  17  -1  594.53  107.92
  11  19   1  363.69   68.92
 -11 -19  -1  395.06   69.27
 -11 -19   1  402.84   69.20
  11  19  -1  373.39   68.87
  11 -19  -1  342.59   68.82
 -11  19   1  446.03   69.11
 -11  19  -1  368.52   68.88
 -11  19  -1  392.40   69.01
  11  21   1   21.40    6.85
 -11 -21  -1    9.05    9.00
 -11 -21   1   17.66    7.05
  11  21  -1   14.49    6.84
  11 -21  -1   17.10    6.59
 -11  21   1   14.23    5.60
 -11  21  -1   15.47    6.36
 -11  21  -1   13.12    6.32
  11  23  -1   63.74   14.58
  11  23   1   71.73   17.04
 -11 -23  -1   92.68   18.46
 -11 -23   1   96.43   17.25
  11 -23  -1   51.74   16.54
 -11  23   1  109.34   17.18
 -11  23  -1   85.58   16.95
 -11  23  -1  105.20   17.18
  11  25   1  170.75   26.79
 -11 -25  -1  115.75   27.55
 -11 -25   1  111.26   26.67
  11  25  -1  186.27   26.79
  11 -25  -1  144.99   26.34
  11 -25  -1  151.83   26.32
 -11  25   1  120.52   26.36
 -11  25  -1  113.41   26.41
 -11  25  -1  122.29   26.53
 -11  27  -1  885.68  154.33
  11  27   1 1289.97  205.81
 -11 -27  -1 1243.86  206.06
 -11 -27   1 1360.70  206.07
  11  27  -1 1283.94  205.74
  11  27  -1 1225.76  205.89
  11 -27  -1  932.52  205.54
  11 -27  -1 1014.44  205.49
 -11  27   1 1278.10  205.89
 -11  27  -1 1108.12  205.61
  11  29   1  990.43  156.52
 -11 -29  -1  916.46  156.78
 -11 -29   1  996.11  156.73
  11  29  -1  873.78  156.37
  11  29  -1  959.32  156.53
  11 -29  -1  679.36  156.25
  11 -29  -1  757.28  156.14
 -11  29   1  895.86  156.51
 -11  29  -1  853.79  156.31
 -11  29  -1  873.11  156.44
  11  31  -1   37.11    9.19
  11  31  -1   34.13    9.00
  11  31   1   42.34   11.39
 -11 -31  -1   34.60   12.78
 -11 -31   1   39.30   10.76
  11 -31  -1   36.34    9.56
  11 -31  -1   27.85    9.63
 -11  31   1   40.26    9.49
 -11  31  -1   24.27   10.52
 -11  31  -1   38.93   10.93
  11  33   1   59.41   13.44
 -11 -33  -1   57.70   14.83
  11  33  -1   46.41   12.22
  11  33  -1   38.28   11.85
  11 -33  -1   40.94   13.42
  11 -33  -1   46.89   13.95
 -11  33   1   60.16   12.06
 -11  33  -1   39.01   12.57
 -11  33  -1   46.35   12.88
 -11  35  -1   22.97    8.34
  11  35   1   23.82   10.44
 -11 -35  -1   39.44   12.67
  11  35  -1   18.73    8.82
  11  35  -1   21.56    8.63
  11 -35  -1   15.72   13.71
  11 -35  -1   14.10    9.93
 -11  35  -1   25.36    9.68
  11  37  -1  189.75   27.36
  11  37   1  226.30   33.54
 -11 -37  -1  131.30   34.11
  11  37  -1  167.49   32.72
  11 -37  -1  196.48   34.18
  11 -37  -1  201.73   33.49
 -11  37  -1  141.87   33.06
 -11  37  -1  115.26   33.00
  11  39  -1 1239.87  193.71
  11  39   1 1414.25  258.69
 -11 -39  -1 1536.78  259.12
  11  39  -1 1378.70  258.59
  11 -39  -1 1557.63  258.91
  11 -39  -1 1490.80  258.76
 -11  39  -1 1485.19  258.73
 -11  39  -1 1579.65  258.81
  11  41   1 2366.41  369.79
 -11 -41  -1 2192.17  369.94
  11  41  -1 2093.06  369.50
  11  41  -1 1800.27  369.29
  11 -41  -1 2150.89  369.70
  11 -41  -1 2161.73  369.75
 -11  41  -1 1920.66  369.49
 -11  41  -1 2068.00  369.56
  11  43  -1  191.34   34.76
  11  43   1  232.62   43.40
 -11 -43  -1  267.82   44.62
  11  43  -1  192.78   42.88
  11 -43  -1  223.51   44.77
  11 -43  -1  216.49   44.15
 -11  43  -1  267.09   43.56
 -11  43  -1  236.84   43.42
 -11  45  -1   99.49   19.85
  11  45   1  116.98   22.76
 -11 -45  -1  112.27   24.95
  11  45  -1  108.31   22.54
  11  45  -1  105.12   21.76
  11 -45  -1   98.15   25.29
  11 -45  -1  113.83   25.65
 -11  45  -1   96.18   23.12
  11  47   1  202.63   45.45
 -11 -47  -1  232.09   47.07
  11  47  -1  219.41   45.44
  11  47  -1  224.48   45.50
  11 -47  -1  272.49   47.45
  11 -47  -1  270.87   47.65
 -11  47  -1  242.63   45.94
 -11  47  -1  257.29   45.94
 -11  49  -1  628.80   84.32
  11  49   1  532.35  107.79
 -11 -49  -1  548.27  108.36
  11  49  -1  587.05  108.34
  11  49  -1  562.89  108.02
  11 -49  -1  528.02  108.67
  11 -49  -1  601.36  108.97
 -11  49  -1  774.56  108.92
 -11 -51  -1   11.10   15.96
  11  51   1   81.86   17.60
 -11 -51  -1   11.47   17.52
  11  51  -1  107.70   20.19
  11  51  -1  117.33   20.15
  11 -51  -1   80.95   22.22
  11 -51  -1   99.65   22.42
 -11  51  -1   30.91   21.32
 -11  51  -1   13.42   19.42
 -11 -53  -1  161.14   29.82
  11  53   1  158.78   34.46
 -11 -53  -1  171.40   35.96
  11  53  -1  163.08   35.61
  11  53  -1  159.74   35.21
  11 -53  -1  168.19   38.41
  11 -53  -1  172.43   38.90
 -11  53  -1  192.54   37.18
 -11  53  -1  162.72   35.88
 -11  55  -1   50.83   17.38
  11  55   1   69.13   18.61
 -11 -55  -1   34.10   20.56
 -11 -55  -1   45.66   18.82
  11  55  -1   80.68   20.60
  11  55  -1   72.20   20.14
  11 -55  -1   79.07   25.87
  11 -55  -1   68.23   23.93
 -11  55  -1   47.86   22.53
  13   1   1  113.11   20.62
 -13  -1  -1   85.78   20.34
 -13  -1   1  111.04   20.97
  13   1  -1  125.85   20.94
  13  -1  -1   97.30   20.09
 -13   1   1  114.10   19.95
  13  -1   1   93.70   20.17
  13   3   1  479.81   68.49
 -13  -3  -1  297.35   68.44
 -13  -3   1  334.67   68.69
  13   3  -1  465.03   68.38
  13  -3  -1  349.00   68.04
 -13   3   1  344.92   68.11
 -13   3  -1  324.51   68.16
  13  -3   1  417.93   68.31
 -13  -5  -1 1849.88  299.61
  13   5   1 2758.11  404.16
 -13  -5   1 2371.26  404.25
  13   5  -1 2499.28  404.05
  13  -5  -1 2010.28  403.78
 -13   5   1 2431.17  403.93
 -13   5  -1 2257.54  403.95
  13  -5   1 2147.53  404.09
 -13  -7   1 4065.76  506.73
  13   7   1 4401.28  684.92
 -13  -7  -1 3743.72  684.74
  13   7  -1 4071.20  684.78
  13  -7  -1 3171.68  684.42
 -13   7   1 4367.52  684.68
 -13   7  -1 3984.93  684.75
 -13   7  -1 3490.25  684.91
  13  -7   1 3889.79  684.87
  13   9   1  266.18   41.11
 -13  -9  -1  206.81   41.00
 -13  -9   1  203.77   41.05
  13   9  -1  266.19   40.94
  13  -9  -1  204.86   40.46
 -13   9   1  223.01   40.56
 -13   9  -1  187.07   40.61
 -13   9  -1  247.26   40.87
  13  -9   1  203.47   40.74
 -13 -11   1  440.56   57.58
 -13 -11  -1  415.79   74.31
  13  11  -1  411.84   74.22
  13 -11  -1  353.78   73.89
 -13  11   1  448.45   74.00
 -13  11  -1  370.51   74.02
 -13  11  -1  470.46   74.30
  13  13   1  250.82   40.74
 -13 -13  -1  206.93   40.92
 -13 -13   1  193.29   40.80
  13  13  -1  251.14   40.69
  13 -13  -1  231.19   40.31
 -13  13   1  235.53   40.44
 -13  13  -1  177.49   40.39
 -13  13  -1  217.50   40.65
  13  15   1  359.03   76.98
 -13 -15  -1  464.28   77.28
 -13 -15   1  510.96   77.32
  13  15  -1  357.35   76.95
  13 -15  -1  313.38   76.80
 -13  15   1  533.41   77.02
 -13  15  -1  433.81   76.97
 -13  15  -1  514.46   77.25
  13  17   1  496.08   53.61
 -13 -17  -1  280.18   68.67
 -13 -17   1  261.61   68.56
  13  17  -1  613.73   68.89
  13 -17  -1  463.86   68.34
 -13  17   1  289.12   68.35
 -13  17  -1  270.59   68.40
 -13  17  -1  299.64   68.52
  13  19   1   34.37    8.73
 -13 -19  -1   38.97   11.31
 -13 -19   1   41.87    9.99
  13  19  -1   27.37    9.91
  13 -19  -1   20.49    9.06
 -13  19   1   45.93    9.17
 -13  19  -1   53.96    9.98
 -13  19  -1   38.98    9.18
  13  21   1   61.34   11.22
 -13 -21  -1   30.84   12.55
 -13 -21   1   40.25   11.25
  13  21  -1   56.82   11.29
  13 -21  -1   50.62   10.90
 -13  21   1   41.60   10.49
 -13  21  -1   35.80   10.79
 -13  21  -1   46.65   10.71
  13  23   1   80.09   13.37
 -13 -23  -1   40.86   14.57
 -13 -23   1   39.20   13.12
  13  23  -1   78.45   13.42
  13 -23  -1   80.11   12.94
 -13  23   1   46.92   12.65
 -13  23  -1   48.22   13.09
 -13  23  -1   48.08   12.92
 -13  25  -1   41.90    8.81
  13  25   1   31.57   10.96
 -13 -25  -1   26.90   11.43
 -13 -25   1   27.67   12.87
  13  25  -1   31.25    9.31
  13 -25  -1   34.06    8.95
 -13  25   1   36.01    9.24
 -13  25  -1   30.96    9.38
  13  27   1 1882.37  312.95
 -13 -27  -1 1678.04  313.06
 -13 -27   1 1952.46  313.17
  13  27  -1 1834.84  312.79
  13 -27  -1 1557.16  312.77
 -13  27   1 1786.68  313.01
 -13  27  -1 1687.06  312.89
 -13  27  -1 1763.53  312.97
  13  29   1 1082.42  175.60
 -13 -29  -1 1564.71  235.11
 -13 -29   1 1774.30  235.18
  13  29  -1 1159.51  234.49
  13  29  -1 1316.53  234.75
  13 -29  -1  882.35  234.36
  13 -29  -1 1116.05  234.51
 -13  29   1 1338.64  234.76
 -13  29  -1 1574.46  234.86
 -13  29  -1 1505.73  234.85
 -13 -31   1  201.64   30.05
  13  31  -1  188.95   29.43
  13  31   1  214.21   36.26
 -13 -31  -1  204.66   36.93
  13  31  -1  193.47   35.85
  13 -31  -1  154.12   35.57
  13 -31  -1  189.51   35.88
 -13  31   1  174.36   35.73
 -13  31  -1  203.05   36.17
 -13  31  -1  175.51   36.02
  13  33   1   47.32   13.46
 -13 -33  -1   46.53   14.99
  13  33  -1   56.30   12.64
  13  33  -1   46.89   12.05
  13 -33  -1   40.48   13.55
  13 -33  -1   53.27   13.39
 -13  33   1   52.77   12.11
 -13  33  -1   46.57   13.17
 -13  33  -1   55.32   13.26
  13  35   1    2.60    9.11
 -13 -35  -1    9.10   11.19
  13  35  -1   -0.54    7.27
  13  35  -1    4.34    6.67
  13 -35  -1    9.22    9.68
  13 -35  -1   -0.10    9.02
 -13  35   1    3.57    6.43
 -13  35  -1    9.19    8.56
 -13  35  -1    3.18    8.64
  13  37  -1  144.60   28.14
  13  37   1  165.79   34.49
 -13 -37  -1  211.77   35.65
  13  37  -1  180.38   34.08
  13 -37  -1  150.53   34.84
  13 -37  -1  142.43   34.44
 -13  37  -1  220.83   34.66
 -13  37  -1  204.78   34.53
 -13 -39  -1 1074.78  155.27
  13  39   1 1162.75  205.21
  13  39  -1 1175.14  205.12
  13  39  -1 1197.42  205.29
  13 -39  -1 1240.85  205.50
  13 -39  -1 1059.33  205.24
 -13  39  -1 1163.43  205.29
 -13  39  -1 1144.37  205.20
  13  41   1 1503.71  219.68
 -13 -41  -1 1563.74  293.96
  13  41  -1 1617.77  293.47
  13  41  -1 1591.71  293.50
  13 -41  -1 1740.37  293.90
  13 -41  -1 1932.93  294.05
 -13  41  -1 1705.75  293.69
 -13  41  -1 1604.36  293.56
  13  43   1  289.06   42.93
 -13 -43  -1  213.23   43.55
  13  43  -1  302.08   53.22
  13  43  -1  297.08   53.18
  13 -43  -1  316.44   54.60
  13 -43  -1  328.34   54.74
 -13  43  -1  257.46   53.39
 -13  43  -1  270.33   53.36
  13  45   1   87.48   19.02
 -13  45  -1   89.33   19.16
 -13 -45  -1  102.04   24.15
  13  45  -1  101.88   21.53
  13  45  -1   98.81   21.46
  13 -45  -1  111.93   24.66
  13 -45  -1  101.88   24.80
 -13  45  -1  102.63   22.23
  13  47   1  209.60   41.48
 -13 -47  -1  202.18   43.07
  13  47  -1  204.32   41.30
  13  47  -1  207.47   41.32
  13 -47  -1  219.67   44.66
  13 -47  -1  253.78   43.61
 -13  47  -1  223.28   41.84
 -13  47  -1  206.24   41.70
  13  49  -1  566.98   73.42
  13  49  -1  552.41   73.24
  13  49   1  516.78   93.73
 -13 -49  -1  413.43   94.02
  13 -49  -1  491.44   94.52
  13 -49  -1  546.50   94.95
 -13  49  -1  536.80   94.72
 -13  49  -1  470.65   94.27
  13  51   1   50.18   21.77
 -13 -51  -1  165.07   24.75
  13  51  -1   58.84   24.10
  13  51  -1   60.96   23.10
  13 -51  -1   31.35   25.83
  13 -51  -1   45.57   25.93
 -13  51  -1  202.78   27.34
 -13  51  -1  192.01   26.49
  13  53   1  200.37   41.11
 -13 -53  -1  154.29   42.43
 -13 -53  -1  169.22   41.90
  13  53  -1  251.68   42.64
  13  53  -1  249.85   42.52
  13 -53  -1  210.74   46.92
  13 -53  -1  209.27   43.16
 -13  53  -1  204.98   43.57
 -13  53  -1  220.63   42.84
  13  55   1   31.58   15.01
 -13 -55  -1   24.60   17.60
 -13 -55  -1   31.53   15.62
  13  55  -1   47.16   17.32
  13  55  -1   46.97   17.09
  13 -55  -1   30.50   22.69
  13 -55  -1   20.48   18.50
 -13  55  -1   20.52   15.12
 -13  55  -1   27.22   18.00
  15   1   1   38.81   10.76
 -15  -1  -1   51.73   10.99
 -15  -1   1   60.88   11.46
  15   1  -1   39.46   11.30
 -15   1   1   54.73    9.70
 -15   1  -1   52.51    9.76
  15  -1   1   30.08    9.91
  15   3   1   14.17    7.24
 -15  -3  -1    9.19    7.62
 -15  -3   1   16.75    7.57
  15   3  -1   12.57    7.12
  15  -3  -1    7.32    4.20
 -15   3   1   17.74    4.42
 -15   3  -1   16.16    4.71
  15  -3   1    4.74    4.45
 -15  -5  -1 2256.55  286.07
  15   5   1 2255.04  385.48
 -15  -5   1 2708.27  385.76
  15   5  -1 1551.87  385.27
  15  -5  -1 1608.10  385.15
 -15   5   1 2937.03  385.40
 -15   5  -1 2646.79  385.40
  15  -5   1 1775.73  385.44
  15   7   1 5005.44  715.13
 -15  -7  -1 3584.59  714.91
 -15  -7   1 4471.75  715.26
  15   7  -1 4464.81  714.99
  15  -7  -1 3572.46  714.61
 -15   7   1 4275.35  714.90
 -15   7  -1 3392.34  714.83
  15  -7   1 3929.35  715.00
 -15  -9  -1  157.39   31.33
 -15  -9   1  148.41   31.40
  15   9  -1  198.18   31.26
  15  -9  -1  148.18   30.58
 -15   9   1  188.44   30.80
 -15   9  -1  147.92   30.82
 -15   9  -1  164.22   31.07
  15  -9   1  195.32   31.20
  15  11  -1  258.24   36.23
  15  11   1  321.43   46.07
 -15 -11  -1  219.80   45.81
 -15 -11   1  223.89   45.92
  15 -11  -1  254.36   45.38
 -15  11   1  252.70   45.47
 -15  11  -1  254.26   45.64
 -15  11  -1  224.78   45.64
  15 -11   1  239.90   45.61
  15  13   1   67.95   12.62
 -15 -13  -1   68.73   14.82
 -15 -13   1   63.19   14.09
  15  13  -1   59.92   14.10
  15 -13  -1   48.27   13.18
 -15  13   1   72.32   13.15
 -15  13  -1   66.63   13.30
 -15  13  -1   70.80   13.33
 -15 -15   1  200.14   34.74
  15  15   1  311.65   43.41
 -15 -15  -1  231.49   43.71
  15  15  -1  264.06   43.30
  15 -15  -1  235.78   42.93
 -15  15   1  236.60   43.00
 -15  15  -1  176.03   43.03
 -15  15  -1  214.57   43.28
 -15 -17   1  289.56   35.92
  15  17   1  152.33   44.47
 -15 -17  -1  319.71   45.08
  15  17  -1  159.38   44.43
  15 -17  -1  130.21   44.12
 -15  17   1  342.10   44.57
 -15  17  -1  296.33   44.52
 -15  17  -1  303.72   44.78
  15  19  -1  218.64   30.25
  15  19   1  302.17   37.70
 -15 -19  -1  169.55   37.69
 -15 -19   1  177.09   37.41
  15 -19  -1  222.28   37.13
 -15  19   1  168.17   37.05
 -15  19  -1  169.28   37.03
 -15  19  -1  163.54   37.25
  15  21   1    9.87    5.98
 -15 -21  -1    5.66    8.53
 -15 -21   1    5.67    6.65
  15  21  -1    3.36    6.79
  15 -21  -1    6.80    5.46
 -15  21   1    7.44    4.36
 -15  21  -1   -3.92    5.17
 -15  21  -1    3.82    5.24
  15  23   1  158.71   32.79
 -15 -23  -1  180.57   33.72
 -15 -23   1  211.25   33.69
  15  23  -1  149.53   32.85
  15 -23  -1  124.27   32.63
 -15  23   1  207.15   33.05
 -15  23  -1  184.50   32.81
 -15  23  -1  197.79   32.93
  15  25   1   47.79   11.84
 -15 -25  -1   66.05   14.54
 -15 -25   1   79.89   15.65
  15  25  -1   40.82   12.57
  15 -25  -1   36.27   11.89
 -15  25   1   63.81   12.67
 -15  25  -1   43.94   12.09
 -15  25  -1   53.00   12.31
  15  27   1 2225.03  421.05
 -15 -27  -1 2386.32  421.32
 -15 -27   1 2747.43  421.39
  15  27  -1 2339.35  420.96
  15 -27  -1 1876.84  420.83
 -15  27   1 2707.98  421.42
 -15  27  -1 2665.45  421.24
 -15  27  -1 2246.90  421.17
  15  29   1 2286.69  322.26
 -15 -29  -1 1538.90  322.15
 -15 -29   1 1908.33  322.31
  15  29  -1 2071.31  322.00
  15 -29  -1 1687.15  321.86
 -15  29   1 1662.75  322.14
 -15  29  -1 1680.02  322.03
 -15  29  -1 1618.64  322.07
  15  31   1  318.67   55.96
 -15 -31  -1  275.96   56.47
 -15 -31   1  343.61   56.75
  15  31  -1  310.54   55.71
  15  31  -1  310.21   55.92
  15 -31  -1  236.38   55.52
 -15  31   1  334.02   55.87
 -15  31  -1  312.38   56.01
 -15  31  -1  301.61   55.95
  15  33   1   98.67   20.15
 -15 -33  -1   80.35   21.30
 -15 -33   1   95.82   21.54
  15  33  -1   98.13   19.42
  15  33  -1  103.16   19.61
  15 -33  -1   92.24   21.22
  15 -33  -1   87.28   21.30
 -15  33   1   93.42   19.43
 -15  33  -1  107.44   20.18
 -15  33  -1   75.77   19.64
  15  35  -1   79.65   16.28
 -15  35  -1   69.06   16.65
  15  35   1  119.74   19.79
 -15 -35  -1   88.60   20.84
  15  35  -1   89.30   18.77
  15 -35  -1   89.17   19.83
  15 -35  -1   80.46   19.80
 -15  35   1   85.88   18.62
 -15  35  -1   91.98   19.47
  15  37  -1  313.63   42.38
  15  37   1  361.51   53.80
 -15 -37  -1  228.96   54.03
  15  37  -1  331.74   53.37
  15 -37  -1  312.87   53.80
  15 -37  -1  319.67   54.22
 -15  37   1  227.36   53.05
 -15  37  -1  216.14   53.21
 -15  37  -1  263.70   53.39
  15  39   1  757.92  125.43
 -15 -39  -1  597.35  125.65
  15  39  -1  734.36  125.16
  15  39  -1  787.23  125.44
  15 -39  -1  676.72  125.55
  15 -39  -1  771.05  125.72
 -15  39   1  701.42  125.52
 -15  39  -1  614.60  125.23
 -15  39  -1  628.29  125.21
  15  41   1  962.82  181.82
 -15 -41  -1 1045.61  182.50
  15  41  -1  981.92  181.74
  15  41  -1 1049.27  181.95
  15 -41  -1  986.37  182.33
  15 -41  -1  954.81  182.15
 -15  41  -1 1101.85  182.07
 -15  41  -1 1085.00  182.03
  15  43   1  141.14   31.21
 -15 -43  -1  187.13   33.38
  15  43  -1  139.90   31.05
  15  43  -1  147.55   31.21
  15 -43  -1  143.04   33.40
  15 -43  -1  136.81   33.11
 -15  43  -1  178.92   31.84
 -15  43  -1  198.09   32.00
  15  45   1   98.11   21.34
 -15 -45  -1   94.41   23.72
  15  45  -1  101.12   21.09
  15  45  -1  105.16   21.11
  15 -45  -1   93.15   24.46
  15 -45  -1   88.87   24.21
 -15  45  -1   90.59   21.75
 -15  45  -1  101.51   21.91
  15  47   1  171.50   36.81
 -15 -47  -1  182.85   38.62
  15  47  -1  182.56   36.62
  15  47  -1  174.50   36.61
  15 -47  -1  194.76   38.98
  15 -47  -1  186.49   39.06
 -15  47  -1  216.82   37.41
 -15  47  -1  198.84   37.35
 -15  49  -1  365.86   54.12
  15  49   1  325.33   66.74
 -15 -49  -1  344.63   67.47
  15  49  -1  358.24   67.27
  15  49  -1  372.52   67.07
  15 -49  -1  329.28   67.88
  15 -49  -1  294.91   67.91
 -15  49  -1  482.00   68.24
  15  51   1  262.21   46.19
 -15 -51  -1  114.40   46.18
  15  51  -1  310.15   47.39
  15  51  -1  332.82   47.13
  15 -51  -1  274.61   48.45
  15 -51  -1  282.51   48.75
 -15  51  -1  151.51   47.48
 -15  51  -1  156.39   47.13
 -15 -53  -1  198.39   35.76
  15  53   1  185.69   41.37
 -15 -53  -1  205.37   42.90
  15  53  -1  191.01   42.74
  15  53  -1  223.04   42.75
  15 -53  -1  193.53   45.17
  15 -53  -1  183.92   43.85
 -15  53  -1  265.12   44.49
 -15  53  -1  271.00   44.18
 -17  -1   1   97.20   19.40
  17   1   1  151.78   22.91
 -17  -1  -1   92.65   23.05
  17   1  -1  143.04   23.16
  17  -1  -1  105.88   22.35
 -17   1   1  115.46   22.30
 -17   1  -1  122.90   22.47
  17  -1   1  109.10   22.55
  17   3   1   37.40    7.65
 -17  -3  -1   13.49    7.93
 -17  -3   1   17.72    9.26
  17   3  -1   44.26    8.89
  17  -3  -1   30.94    6.67
 -17   3   1   18.99    6.64
 -17   3  -1   22.03    6.93
  17   5   1 2355.14  317.75
 -17  -5  -1 1459.11  317.60
 -17  -5   1 1626.84  317.80
  17   5  -1 2087.47  317.58
  17  -5  -1 1606.17  317.38
 -17   5   1 1689.58  317.48
 -17   5  -1 1488.08  317.58
  17  -5   1 1949.64  317.79
  17   7   1 3017.03  486.61
 -17  -7   1 3300.27  486.89
  17   7  -1 2665.34  486.47
  17  -7  -1 1978.92  486.13
 -17   7   1 3129.99  486.39
 -17   7  -1 3220.37  486.49
  17  -7   1 2241.89  486.48
  17   9   1   93.10   15.71
 -17  -9  -1   68.10   15.75
 -17  -9   1   63.55   15.47
  17   9  -1   85.95   15.21
  17  -9  -1   51.02   14.30
 -17   9   1   80.49   14.49
 -17   9  -1   75.63   14.88
  17  -9   1   69.02   14.89
  17  11   1  297.60   45.12
 -17 -11  -1  223.57   44.94
 -17 -11   1  239.34   45.10
  17  11  -1  270.52   44.88
  17 -11  -1  200.84   44.26
 -17  11   1  263.35   44.56
 -17  11  -1  256.20   44.62
  17 -11   1  215.95   44.75
  17  13   1  109.50   16.54
 -17 -13  -1   57.17   15.99
 -17 -13   1   65.04   15.90
  17  13  -1  103.48   16.10
  17 -13  -1   70.06   15.12
 -17  13   1   65.45   14.94
 -17  13  -1   60.75   15.03
 -17  13  -1   66.26   15.29
  17 -13   1   75.81   15.15
  17  15   1  912.05  147.88
 -17 -15  -1  790.76  147.89
 -17 -15   1  851.51  148.05
  17  15  -1  853.37  147.85
  17 -15  -1  747.53  147.55
 -17  15   1  900.19  147.72
 -17  15  -1  834.24  147.76
 -17  15  -1  882.58  147.95
  17 -15   1  722.39  147.73
 -17 -17  -1 1174.70  185.43
  17  17   1 1757.64  248.40
 -17 -17   1 1211.87  248.31
  17  17  -1 1628.97  248.23
  17 -17  -1 1355.56  248.05
 -17  17   1 1475.95  248.15
 -17  17  -1 1353.61  248.16
 -17  17  -1 1180.78  248.31
  17  19  -1  563.29  112.16
  17  19   1  982.43  149.04
 -17 -19  -1  871.03  149.03
 -17 -19   1  891.94  149.07
  17 -19  -1  748.07  148.58
 -17  19   1  896.30  148.85
 -17  19  -1  886.69  148.83
 -17  19  -1  938.25  149.13
  17  21   1   14.80    6.96
 -17 -21  -1   11.22    8.65
 -17 -21   1    2.72   10.49
  17  21  -1   18.19    6.69
  17 -21  -1   11.20    6.42
 -17  21   1    8.62    5.83
 -17  21  -1    7.24    6.19
 -17  21  -1    3.17    5.96
  17  23   1  179.77   30.33
 -17 -23  -1  168.91   30.85
 -17 -23   1  162.36   30.84
  17  23  -1  129.78   29.79
  17 -23  -1  149.23   30.17
 -17  23   1  153.41   29.65
 -17  23  -1  148.51   29.83
 -17  23  -1  169.39   30.02
  17  25   1  179.98   28.97
 -17 -25  -1  121.43   29.30
 -17 -25   1  135.36   29.51
  17  25  -1  197.30   28.79
  17 -25  -1  156.14   28.48
 -17  25   1  125.11   28.31
 -17  25  -1  129.89   28.30
 -17  25  -1  123.69   28.45
  17  27   1 2271.55  352.34
 -17 -27  -1 1769.65  352.40
 -17 -27   1 2056.21  352.40
  17  27  -1 2184.22  352.20
  17 -27  -1 1894.81  352.15
 -17  27   1 1924.14  352.35
 -17  27  -1 1961.68  352.21
 -17  27  -1 1794.05  352.23
  17  29   1 1263.00  231.32
 -17 -29  -1 1926.18  310.52
 -17 -29   1 2183.55  310.59
  17  29  -1 1439.54  309.88
  17 -29  -1 1267.23  309.92
 -17  29   1 2117.61  310.50
 -17  29  -1 2059.65  310.29
 -17  29  -1 1951.44  310.33
  17  31   1  486.15   86.55
 -17 -31  -1  489.34   87.03
 -17 -31   1  524.60   87.11
  17  31  -1  466.38   86.32
  17  31  -1  476.23   86.55
  17 -31  -1  429.79   86.43
 -17  31   1  512.38   86.71
 -17  31  -1  443.21   86.43
 -17  31  -1  497.27   86.61
  17  33   1   82.34   20.38
 -17 -33  -1   99.88   21.82
 -17 -33   1  114.70   22.19
  17  33  -1   93.61   20.05
  17  33  -1   76.60   19.96
  17 -33  -1   75.06   20.56
 -17  33   1  103.37   20.62
 -17  33  -1  108.96   20.52
 -17  33  -1  108.18   20.35
  17  35   1  162.04   32.30
 -17 -35  -1  165.20   33.37
 -17 -35   1  208.58   33.51
  17  35  -1  152.85   31.38
  17  35  -1  121.72   31.53
  17 -35  -1  135.40   32.42
  17 -35  -1  155.63   33.02
 -17  35   1  208.55   32.67
 -17  35  -1  174.42   32.33
 -17  35  -1  178.12   32.24
  17  37   1  143.31   32.68
 -17 -37  -1  180.99   33.74
  17  37  -1  143.71   32.20
  17  37  -1  133.71   31.95
  17 -37  -1  127.01   32.90
  17 -37  -1  139.04   33.44
 -17  37   1  245.95   33.25
 -17  37  -1  192.00   32.62
 -17  37  -1  205.42   32.76
  17  39   1  224.38   51.82
 -17 -39  -1  346.12   53.13
  17  39  -1  203.74   51.44
  17  39  -1  185.53   51.10
  17 -39  -1  182.75   52.62
  17 -39  -1  191.21   53.17
 -17  39   1  403.38   52.64
 -17  39  -1  391.80   52.31
 -17  39  -1  396.87   52.46
  17  41   1  411.21   66.59
 -17 -41  -1  322.52   67.06
  17  41  -1  389.45   65.95
  17  41  -1  420.26   66.56
  17 -41  -1  367.03   66.91
  17 -41  -1  398.83   67.33
 -17  41   1  329.93   66.56
 -17  41  -1  306.70   66.18
 -17  41  -1  288.06   66.22
  17  43  -1   26.23    9.12
 -17  43  -1   18.14    8.84
 -17  43  -1   19.20    9.48
  17  43   1   21.51    8.56
 -17 -43  -1   26.91   14.32
  17  43  -1   23.18   10.43
  17 -43  -1   25.40   16.10
  17 -43  -1   27.79   15.46
  17  45   1   36.54   10.91
  17  45  -1   30.44   10.84
 -17 -45  -1   23.52   15.84
  17  45  -1   39.40   12.04
  17 -45  -1   54.58   17.72
  17 -45  -1   31.61   17.13
 -17  45  -1   31.85   12.27
 -17  45  -1   46.34   13.45
  17  47   1   68.78   16.72
 -17 -47  -1   61.91   17.84
  17  47  -1   73.97   17.26
  17  47  -1   76.68   18.22
  17 -47  -1   54.10   20.84
  17 -47  -1   56.25   23.56
 -17  47  -1   39.43   15.92
 -17  47  -1   64.24   19.72
  17  49   1  145.95   31.54
 -17 -49  -1  201.81   38.94
  17  49  -1  199.30   39.87
  17  49  -1  197.71   38.53
  17 -49  -1  160.94   40.01
  17 -49  -1  167.27   40.26
 -17  49  -1  238.01   40.50
 -17  49  -1  226.74   40.02
  17  51  -1  169.59   33.02
  17  51   1  142.55   39.29
 -17 -51  -1  249.04   41.12
  17  51  -1  176.88   41.47
  17 -51  -1  151.82   43.46
  17 -51  -1  136.73   42.14
 -17  51  -1  286.11   42.61
 -17  51  -1  307.02   42.37
  17  53   1  359.62   73.97
 -17 -53  -1  314.72   74.72
  17  53  -1  456.20   75.58
  17  53  -1  436.86   74.78
  17 -53  -1  417.44   76.54
  17 -53  -1  397.69   75.62
 -17  53  -1  402.29   75.80
 -17  53  -1  398.49   75.58
  19   1   1  152.68   29.32
 -19  -1  -1  166.25   29.83
 -19  -1   1  169.79   29.96
  19   1  -1  154.82   29.52
  19  -1  -1  102.86   28.95
 -19   1   1  183.54   29.01
 -19   1  -1  209.24   29.24
  19  -1   1  109.78   29.14
  19   3   1   50.58   12.21
 -19  -3  -1   53.19   11.88
 -19  -3   1   56.47   12.78
  19   3  -1   55.88   12.26
  19  -3  -1   39.18   10.73
 -19   3   1   53.50   10.90
 -19   3  -1   59.30   10.88
  19  -3   1   41.19   10.96
 -19  -5   1  958.54  116.64
  19   5   1  676.78  154.20
 -19  -5  -1  976.51  154.44
  19  -5  -1  486.04  154.00
 -19   5   1 1181.21  154.21
 -19   5  -1 1217.56  154.31
  19  -5   1  557.36  154.28
  19   7   1  605.36   84.83
 -19  -7  -1  515.44  111.52
 -19  -7   1  640.94  111.86
  19   7  -1  752.65  111.45
  19  -7  -1  553.08  111.14
 -19   7   1  644.10  111.33
 -19   7  -1  668.47  111.51
  19   9   1  123.45   17.99
 -19  -9  -1   64.42   18.04
 -19  -9   1   54.99   17.57
  19   9  -1  122.99   17.34
  19  -9  -1   73.14   16.52
 -19   9   1   74.30   16.71
 -19   9  -1   78.69   17.18
  19  -9   1   88.33   17.10
 -19 -11  -1  138.75   23.78
  19  11   1  182.53   29.36
 -19 -11   1  160.59   29.28
  19  11  -1  159.76   29.01
  19 -11  -1  117.65   28.40
 -19  11   1  162.89   28.61
 -19  11  -1  190.67   28.91
  19 -11   1  127.62   28.76
  19  13   1   59.34    9.67
 -19 -13  -1   20.66   10.35
 -19 -13   1   26.54   10.01
  19  13  -1   58.83   10.20
  19 -13  -1   35.89    8.30
 -19  13   1   27.72    8.57
 -19  13  -1   22.26    8.87
 -19  13  -1   24.60    8.66
  19 -13   1   50.61    9.63
  19  15   1 1109.52  185.13
 -19 -15  -1  958.42  185.04
 -19 -15   1  974.06  185.26
  19  15  -1 1101.77  185.15
  19 -15  -1  816.83  184.64
 -19  15   1 1173.49  185.00
 -19  15  -1 1068.45  184.96
 -19  15  -1 1230.81  185.30
  19  17   1 3362.25  510.87
 -19 -17  -1 2799.01  510.77
 -19 -17   1 2600.26  510.91
  19  17  -1 3199.26  510.85
  19 -17  -1 2468.43  510.50
 -19  17   1 3024.79  510.71
 -19  17  -1 2942.19  510.75
 -19  17  -1 2960.16  510.94
  19 -17   1 2690.59  510.77
 -19 -19  -1 1852.68  292.11
  19  19   1 2460.68  393.38
 -19 -19   1 2518.18  393.62
  19  19  -1 2310.79  393.18
  19 -19  -1 1829.38  393.01
 -19  19   1 2316.31  393.18
 -19  19  -1 2183.91  393.22
 -19  19  -1 2438.33  393.51
  19  21   1   88.35   14.83
 -19 -21  -1   39.56   13.30
 -19 -21   1   49.91   15.49
  19  21  -1   70.73   12.41
  19 -21  -1   57.29   12.39
 -19  21   1   38.80   12.03
 -19  21  -1   38.03   12.16
 -19  21  -1   36.39   12.11
  19  23   1  247.43   44.07
 -19 -23  -1  216.96   44.33
 -19 -23   1  276.69   44.72
  19  23  -1  228.66   43.72
  19 -23  -1  201.76   43.87
 -19  23   1  236.66   43.80
 -19  23  -1  249.79   43.82
 -19  23  -1  243.21   44.02
  19  25   1  186.89   38.98
 -19 -25  -1  233.36   39.66
 -19 -25   1  235.70   39.54
  19  25  -1  177.39   38.67
  19 -25  -1  140.53   38.84
 -19  25   1  233.93   38.67
 -19  25  -1  243.47   38.88
 -19  25  -1  225.32   39.10
 -19  27  -1 1081.10  218.35
  19  27   1 1911.46  292.40
 -19 -27  -1 1717.71  292.64
 -19 -27   1 1911.51  292.55
  19 -27  -1 1342.51  292.01
 -19  27   1 1680.52  292.37
 -19  27  -1 1868.17  292.37
  19  29   1 1371.21  178.09
 -19 -29  -1  863.65  178.00
 -19 -29   1  992.16  178.05
  19  29  -1 1092.33  177.79
  19 -29  -1 1041.68  177.78
 -19  29   1  839.92  177.78
 -19  29  -1  860.70  177.62
 -19  29  -1  847.03  177.69
  19  31   1  189.52   32.48
 -19 -31  -1  156.97   33.10
 -19 -31   1  163.83   33.58
  19  31  -1  184.98   32.19
  19 -31  -1  175.36   33.32
 -19  31   1  150.62   32.02
 -19  31  -1  158.77   31.89
 -19  31  -1  139.71   31.92
  19  33   1  253.98   43.51
 -19 -33  -1  216.70   44.32
 -19 -33   1  266.63   44.50
  19  33  -1  223.37   43.25
  19  33  -1  259.90   43.39
  19 -33  -1  237.40   43.92
 -19  33   1  224.20   44.11
 -19  33  -1  210.45   43.22
 -19  33  -1  178.29   43.20
  19  35   1  165.00   28.85
 -19 -35  -1  112.50   29.93
 -19 -35   1  137.87   30.03
  19  35  -1  155.72   28.55
  19  35  -1  155.78   28.40
  19 -35  -1  140.48   29.62
 -19  35   1  145.86   29.62
 -19  35  -1  124.17   28.37
 -19  35  -1  152.06   28.70
  19  37  -1  186.09   28.72
  19  37   1  187.01   35.28
 -19 -37  -1  153.81   36.27
  19  37  -1  195.02   34.78
  19 -37  -1  174.88   35.57
  19 -37  -1  190.70   36.24
 -19  37   1  176.07   35.39
 -19  37  -1  172.38   35.00
 -19  37  -1  191.34   35.17
  19  39   1  463.48   62.68
 -19 -39  -1  202.21   62.53
  19  39  -1  439.00   62.21
  19  39  -1  431.11   62.21
  19 -39  -1  399.99   62.72
  19 -39  -1  446.69   63.23
 -19  39   1  216.83   61.91
 -19  39  -1  183.19   61.54
 -19  39  -1  203.82   61.69
  19  41   1  169.88   42.84
 -19 -41  -1  298.81   44.68
  19  41  -1  173.29   42.49
  19  41  -1  173.52   42.43
  19 -41  -1  166.51   44.16
  19 -41  -1  166.27   44.97
 -19  41   1  307.83   43.78
 -19  41  -1  281.95   43.19
 -19  41  -1  309.06   43.56
  19  43  -1  139.97   22.76
  19  43   1  154.59   26.73
 -19 -43  -1  116.90   28.36
  19  43  -1  129.06   26.35
  19 -43  -1  118.41   27.94
  19 -43  -1  137.49   30.65
 -19  43   1  115.43   27.10
 -19  43  -1  110.89   26.19
 -19  43  -1  122.12   26.72
  19  45  -1   22.64    9.58
  19  45   1   20.24   11.02
 -19 -45  -1   41.61   15.68
  19  45  -1   30.83   11.67
  19 -45  -1   33.78   17.42
  19 -45  -1   16.41   16.81
 -19  45  -1   31.19   11.57
 -19  45  -1   31.80   12.51
  19  47  -1   60.58   14.74
  19  47   1   63.10   18.53
 -19 -47  -1   39.32   17.11
  19  47  -1   60.03   19.63
  19 -47  -1   42.77   20.12
  19 -47  -1   48.78   19.99
 -19  47  -1   75.11   20.54
 -19  47  -1   45.67   18.54
  19  49   1  338.61   55.94
 -19 -49  -1  216.04   55.10
  19  49  -1  346.75   56.13
  19  49  -1  299.91   55.09
  19 -49  -1  292.11   56.43
  19 -49  -1  277.86   56.63
 -19  49  -1  263.40   56.23
 -19  49  -1  254.20   55.66
  19  51   1  291.86   62.91
 -19 -51  -1  306.55   63.91
  19  51  -1  358.51   64.39
  19  51  -1  353.10   63.49
  19 -51  -1  316.58   67.22
  19 -51  -1  304.09   64.27
 -19  51  -1  376.33   64.96
 -19  51  -1  373.55   64.60
  19  53   1  293.30   67.17
 -19 -53  -1  299.33   68.29
  19  53  -1  416.60   69.16
  19  53  -1  391.52   68.11
  19 -53  -1  350.35   70.33
  19 -53  -1  345.13   69.07
 -19  53  -1  335.39   69.46
 -19  53  -1  437.12   69.45
  21   1   1  115.77   18.99
 -21  -1  -1   72.18   19.26
 -21  -1   1   87.40   19.69
  21   1  -1  129.39   19.24
  21  -1  -1   87.22   18.36
 -21   1   1   83.52   18.17
 -21   1  -1   88.21   18.38
  21  -1   1   78.06   18.52
  21   3   1   29.67    9.97
 -21  -3  -1   49.39    9.80
 -21  -3   1   47.38   10.61
  21   3  -1   24.42   10.08
  21  -3  -1   14.95    8.27
 -21   3   1   45.76    8.53
 -21   3  -1   50.73    9.08
  21  -3   1   14.45    8.43
  21   5   1  311.52   35.43
 -21  -5  -1   88.01   34.80
 -21  -5   1  108.47   35.23
  21   5  -1  284.52   35.22
  21  -5  -1  220.73   34.74
 -21   5   1  125.19   34.62
 -21   5  -1  116.96   34.56
  21   7   1   77.72   14.95
 -21  -7  -1   59.99   15.44
 -21  -7   1   64.87   15.58
  21   7  -1   84.30   14.76
  21  -7  -1   50.42   13.79
 -21   7   1   76.65   14.32
 -21   7  -1   84.46   14.59
  21  -7   1   48.39   14.13
  21   9   1   62.48   13.71
 -21  -9  -1   59.16   14.14
 -21  -9   1   64.99   13.60
  21   9  -1   50.17   12.13
  21  -9  -1   32.20   11.76
 -21   9   1   76.49   12.06
 -21   9  -1   86.06   12.82
  21  -9   1   42.81   12.30
  21  11   1  227.79   33.06
 -21 -11  -1  138.76   33.06
 -21 -11   1  161.37   32.87
  21  11  -1  211.13   32.77
  21 -11  -1  142.37   32.15
 -21  11   1  169.53   32.40
 -21  11  -1  174.21   32.49
  21 -11   1  171.93   32.46
  21  13   1   26.11    8.78
 -21 -13  -1   38.25   10.34
 -21 -13   1   36.51    9.73
  21  13  -1   33.18    9.43
  21 -13  -1   19.31    7.75
 -21  13   1   36.95    7.99
 -21  13  -1   47.55    9.08
  21 -13   1   14.92    8.29
  21  15   1 2452.28  334.79
 -21 -15  -1 1556.06  334.42
 -21 -15   1 1700.91  334.72
  21  15  -1 2357.92  334.66
  21 -15  -1 1536.57  334.10
 -21  15   1 1875.76  334.41
 -21  15  -1 1929.95  334.51
 -21  15  -1 1870.09  334.71
  21 -15   1 1806.88  334.61
  21  17   1 3999.16  496.29
 -21 -17  -1 3106.74  496.07
 -21 -17   1 4593.67  671.10
  21  17  -1 4218.15  670.78
  21 -17  -1 3078.52  670.29
 -21  17   1 4127.91  670.65
 -21  17  -1 4111.20  670.64
 -21  17  -1 3837.93  670.86
  21 -17   1 3437.34  670.71
  21  19   1 2650.50  395.68
 -21 -19  -1 1916.71  395.36
 -21 -19   1 2684.40  395.91
  21  19  -1 2424.37  395.52
  21 -19  -1 1825.11  395.13
 -21  19   1 2235.29  395.36
 -21  19  -1 2171.10  395.37
 -21  19  -1 2358.63  395.67
  21 -19   1 2015.23  395.43
  21  21   1  182.23   31.32
 -21 -21  -1  137.40   30.36
 -21 -21   1  212.07   32.06
  21  21  -1  145.67   30.10
  21 -21  -1   99.36   29.76
 -21  21   1  172.05   30.15
 -21  21  -1  177.14   30.17
 -21  21  -1  154.32   30.22
  21  23   1  161.23   26.36
 -21 -23  -1  108.97   25.74
 -21 -23   1  143.42   26.86
  21  23  -1  142.43   25.36
  21 -23  -1  109.10   25.63
 -21  23   1  120.31   25.08
 -21  23  -1  128.90   25.40
 -21  23  -1  123.93   25.52
  21  25   1  274.61   32.99
 -21 -25  -1  174.39   40.73
 -21 -25   1  198.28   41.07
  21  25  -1  253.31   40.39
  21 -25  -1  229.82   40.38
 -21  25   1  176.32   40.23
 -21  25  -1  180.55   40.30
 -21  25  -1  229.27   40.74
 -21 -27  -1  508.61   79.26
  21  27   1  605.61  102.89
 -21 -27   1  617.22  103.16
  21  27  -1  566.88  102.66
  21 -27  -1  555.08  102.85
 -21  27   1  526.27  102.64
 -21  27  -1  603.39  102.82
 -21  27  -1  583.23  102.99
  21  29   1   89.88   27.88
 -21 -29  -1  168.88   29.67
 -21 -29   1  221.54   30.52
  21  29  -1   95.82   27.99
  21 -29  -1   97.56   29.91
 -21  29   1  195.27   29.11
 -21  29  -1  155.89   28.40
 -21  29  -1  151.91   28.52
 -21 -31   1   12.96   10.18
  21  31   1    1.14   10.16
 -21 -31  -1   16.06   11.25
  21  31  -1    5.52    7.74
  21 -31  -1   -2.69    8.87
 -21  31   1   14.94   10.21
 -21  31  -1   15.50    7.95
 -21  31  -1   14.21    8.20
  21  33   1   50.58   15.10
 -21 -33  -1   69.67   17.20
 -21 -33   1   69.96   17.78
  21  33  -1   53.29   14.90
  21  33  -1   53.02   14.74
  21 -33  -1   40.38   15.27
 -21  33   1   85.47   15.87
 -21  33  -1   56.97   14.60
 -21  33  -1   75.37   14.99
  21  35   1  209.21   33.30
 -21 -35   1  224.20   34.24
  21  35  -1  224.24   33.39
  21  35  -1  180.11   33.10
 -21 -35  -1  201.22   42.13
  21 -35  -1  171.99   41.83
 -21  35   1  252.35   41.57
 -21  35  -1  253.13   41.11
 -21  35  -1  234.09   41.16
  21  37   1  199.47   39.01
 -21 -37  -1  190.86   40.19
 -21 -37   1  220.07   40.24
  21  37  -1  219.99   39.02
  21  37  -1  187.05   38.45
  21 -37  -1  199.11   39.62
 -21  37   1  213.72   39.34
 -21  37  -1  199.74   38.88
 -21  37  -1  197.53   39.01
  21  39  -1  179.36   40.75
  21  39   1  183.31   51.12
 -21 -39  -1  388.80   53.18
  21  39  -1  182.60   50.63
  21 -39  -1  140.35   51.88
  21 -39  -1  167.75   52.35
 -21  39   1  429.55   52.72
 -21  39  -1  415.37   51.95
 -21  39  -1  429.16   52.04
  21  41   1  223.98   35.82
 -21 -41  -1  160.78   36.79
  21  41  -1  228.62   35.62
  21  41  -1  224.20   35.15
  21 -41  -1  173.18   36.10
  21 -41  -1  211.78   37.09
 -21  41   1  130.12   35.40
 -21  41  -1  128.16   34.89
 -21  41  -1  127.54   35.05
  21  43   1  163.28   35.21
  21  43  -1  182.98   35.09
  21  43  -1  166.34   34.76
  21 -43  -1  143.47   35.94
  21 -43  -1  155.17   36.84
 -21  43   1  190.67   35.72
 -21  43  -1  182.16   35.08
 -21  43  -1  238.21   35.73
  21  45   1   12.82    9.87
 -21 -45  -1   11.22   15.47
  21  45  -1   20.78   16.89
  21  45  -1   24.10   13.80
  21 -45  -1   28.52   18.30
  21 -45  -1   10.98   15.80
 -21  45  -1   10.29   10.39
 -21  45  -1   16.78   11.55
  21  47   1   -0.38   13.81
 -21 -47  -1   21.03   13.09
  21  47  -1    8.10   16.66
  21  47  -1   -2.70   12.76
  21 -47  -1    2.17   16.84
  21 -47  -1   -0.16   16.16
 -21  47  -1    8.31   15.87
 -21  47  -1    9.15   14.64
  21  49   1  192.07   45.52
 -21 -49  -1  244.14   45.91
  21  49  -1  242.82   46.65
  21  49  -1  229.76   45.07
  21 -49  -1  172.48   46.62
  21 -49  -1  171.74   46.12
 -21  49  -1  298.47   47.01
 -21  49  -1  285.22   46.31
  21  51   1  552.46  107.23
 -21 -51  -1  490.00  107.63
  21  51  -1  724.77  108.35
  21  51  -1  642.32  107.22
  21 -51  -1  536.57  108.89
  21 -51  -1  526.94  107.89
 -21  51  -1  544.12  107.77
 -21  51  -1  642.94  108.06
  23   1   1   75.05   15.24
 -23  -1  -1   64.23   15.72
 -23  -1   1   85.04   16.34
  23   1  -1   69.71   15.33
  23  -1  -1   50.64   14.51
 -23   1   1   82.75   14.76
 -23   1  -1   88.82   15.02
  23  -1   1   54.63   14.45
  23   3   1  197.16   28.65
 -23  -3  -1  161.44   36.09
 -23  -3   1  177.60   36.41
  23   3  -1  246.32   36.11
  23  -3  -1  163.85   35.51
 -23   3   1  189.08   35.61
 -23   3  -1  212.23   35.76
  23  -3   1  171.93   35.77
  23   5   1  170.83   21.74
 -23  -5  -1   57.85   21.08
 -23  -5   1   69.54   21.61
  23   5  -1  163.44   21.60
  23  -5  -1  110.55   20.50
 -23   5   1   71.67   20.73
 -23   5  -1   69.12   20.42
  23   7   1   30.24   14.90
 -23  -7  -1  114.77   15.69
 -23  -7   1  122.93   16.26
  23   7  -1   38.48   15.12
  23  -7  -1   26.04   14.05
 -23   7   1  141.94   14.95
  23  -7   1   28.74   14.48
  23   9   1   90.13   14.07
 -23  -9  -1   67.59   16.56
 -23  -9   1   54.31   16.10
  23   9  -1   76.22   15.39
  23  -9  -1   69.26   14.84
 -23   9   1   72.92   15.02
 -23   9  -1   87.11   15.93
  23  -9   1   74.26   15.64
  23  11   1  114.95   21.91
 -23 -11  -1  116.89   22.43
 -23 -11   1  130.58   21.88
  23  11  -1  101.79   21.39
  23 -11  -1   70.27   20.77
 -23  11   1  128.94   21.23
 -23  11  -1  152.59   21.62
  23 -11   1   69.53   20.99
  23  13   1   95.98   15.26
 -23 -13  -1   37.97   15.28
 -23 -13   1   57.80   15.73
  23  13  -1   95.15   15.02
  23 -13  -1   55.55   13.81
 -23  13   1   43.50   13.17
 -23  13  -1   61.20   14.00
  23 -13   1   64.84   13.81
  23  15   1 1877.42  285.90
 -23 -15  -1 1479.38  285.62
 -23 -15   1 1909.63  286.20
  23  15  -1 1655.87  285.66
  23 -15  -1 1168.62  285.17
 -23  15   1 1839.12  285.64
 -23  15  -1 1732.93  285.78
  23 -15   1 1441.13  285.74
  23  17   1 4003.38  615.77
 -23 -17  -1 3043.90  615.55
 -23 -17   1 4226.49  616.13
  23  17  -1 4006.31  615.75
  23 -17  -1 2628.21  615.18
 -23  17   1 3384.58  615.58
 -23  17  -1 3947.53  615.82
 -23  17  -1 3489.11  615.86
  23 -17   1 2974.05  615.69
  23  19   1 2187.49  306.96
 -23 -19  -1 1494.70  306.64
 -23 -19   1 1993.48  307.17
  23  19  -1 1965.36  306.81
  23 -19  -1 1439.97  306.30
 -23  19   1 1770.39  306.63
 -23  19  -1 1874.62  306.71
 -23  19  -1 1594.57  306.79
  23 -19   1 1322.97  306.60
  23  21   1  114.38   18.93
 -23 -21  -1   69.04   17.52
 -23 -21   1   64.99   19.50
  23  21  -1   96.52   17.10
  23 -21  -1   71.49   17.08
 -23  21   1   64.35   16.25
 -23  21  -1   77.31   16.86
 -23  21  -1   76.60   16.62
 -23 -23   1  260.76   40.91
  23  23   1  341.68   51.34
 -23 -23  -1  207.91   50.57
  23  23  -1  305.66   50.58
  23 -23  -1  268.26   50.64
 -23  23   1  263.66   50.67
 -23  23  -1  277.60   50.71
 -23  23  -1  268.85   50.74
  23  25   1  122.47   24.09
 -23 -25  -1  105.39   23.97
 -23 -25   1  115.36   24.90
  23  25  -1  116.31   23.47
  23 -25  -1   85.60   23.86
 -23  25   1  126.36   24.02
 -23  25  -1  138.86   23.60
 -23  25  -1  140.71   23.86
  23  27   1  413.29   57.15
 -23 -27  -1  243.02   56.84
 -23 -27   1  254.51   57.06
  23  27  -1  380.42   56.78
  23 -27  -1  330.46   57.07
 -23  27   1  278.86   56.65
 -23  27  -1  275.26   56.62
 -23  27  -1  270.56   56.93
  23  29   1  452.65   97.74
 -23 -29  -1  500.30   98.02
 -23 -29   1  734.53   98.59
  23  29  -1  414.44   97.39
  23 -29  -1  366.39   97.78
 -23  29   1  642.79   98.27
 -23  29  -1  620.61   97.87
 -23  29  -1  633.84   98.09
 -23 -31   1  282.17   39.30
  23  31   1  280.70   48.13
 -23 -31  -1  219.41   48.34
  23  31  -1  234.57   47.45
  23 -31  -1  224.38   47.82
 -23  31   1  294.52   48.26
 -23  31  -1  232.39   47.64
 -23  31  -1  278.68   47.90
  23  33   1   66.02   14.96
 -23 -33  -1   44.32   15.87
 -23 -33   1   40.84   17.40
  23  33  -1   66.75   13.69
  23 -33  -1   45.60   14.75
 -23  33   1   60.45   15.46
 -23  33  -1   49.13   13.63
 -23  33  -1   44.38   13.73
  23  35  -1   74.37   14.12
  23  35   1   78.37   16.57
 -23 -35  -1   52.17   18.20
 -23 -35   1   61.39   18.59
  23  35  -1   74.99   15.83
  23 -35  -1   61.37   16.88
 -23  35   1   63.46   16.86
 -23  35  -1   59.16   15.91
 -23  35  -1   59.80   15.85
  23  37   1  347.03   70.31
 -23 -37  -1  433.99   71.52
 -23 -37   1  440.38   71.32
  23  37  -1  351.89   70.21
  23  37  -1  346.62   70.05
  23 -37  -1  291.28   70.46
 -23  37   1  412.10   70.85
 -23  37  -1  413.96   70.55
 -23  37  -1  440.58   70.67
  23  39   1  285.99   41.87
 -23 -39  -1  144.15   42.37
  23  39  -1  302.54   41.66
  23  39  -1  274.00   41.20
  23 -39  -1  236.92   42.23
 -23  39   1  149.93   41.38
 -23  39  -1  145.92   41.05
 -23  39  -1  153.31   41.09
  23  41   1  110.44   22.42
  23  41  -1  116.78   22.17
 -23 -41  -1  137.76   28.32
  23  41  -1  112.75   25.41
  23 -41  -1  110.50   27.14
  23 -41  -1  106.19   27.23
 -23  41   1  142.37   26.76
 -23  41  -1  143.10   26.33
 -23  41  -1  148.56   26.25
  23  43   1  368.16   63.85
 -23 -43  -1  316.72   64.87
  23  43  -1  437.10   65.37
  23  43  -1  410.34   64.09
  23 -43  -1  310.17   64.23
  23 -43  -1  331.16   64.38
 -23  43   1  284.96   63.78
 -23  43  -1  272.94   63.46
 -23  43  -1  335.16   63.75
  23  45   1   18.59   14.23
 -23 -45  -1   24.69   14.09
  23  45  -1   27.01   18.09
  23  45  -1   34.96   14.60
  23 -45  -1   19.91   17.63
  23 -45  -1   23.36   14.91
 -23  45   1   24.66   12.95
 -23  45  -1   10.32   15.77
 -23  45  -1   19.67   15.54
 -23  47  -1   -3.06   11.51
  23  47   1   13.45   14.29
 -23 -47  -1   -1.01   13.60
  23  47  -1   26.40   17.72
  23  47  -1   17.50   13.65
  23 -47  -1   16.79   16.56
  23 -47  -1   10.78   14.84
 -23  47  -1   -6.96   15.15
  23  49   1  377.98   66.23
 -23 -49  -1  260.43   66.08
  23  49  -1  437.38   67.39
  23  49  -1  396.53   65.85
  23 -49  -1  307.26   67.10
  23 -49  -1  363.93   66.80
 -23  49  -1  291.79   66.27
 -23  49  -1  326.79   66.21
  23  51   1  558.71  115.81
 -23 -51  -1  690.01  117.17
  23  51  -1  704.49  116.84
  23  51  -1  576.89  115.36
  23 -51  -1  558.85  118.26
  23 -51  -1  537.56  116.39
 -23  51  -1  708.13  116.52
 -23  51  -1  754.40  116.66
  25   1   1   85.27   18.65
 -25  -1  -1  102.35   19.44
 -25  -1   1  100.47   19.78
  25   1  -1   98.72   18.62
  25  -1  -1   60.85   18.07
 -25   1   1  114.95   18.48
 -25   1  -1  106.38   18.42
  25  -1   1   59.98   18.03
  25   3   1  839.86  144.45
 -25  -3  -1  723.53  144.67
 -25  -3   1  897.92  144.92
  25   3  -1  793.52  144.43
  25  -3  -1  610.84  144.36
 -25   3   1  881.14  144.43
 -25   3  -1  930.32  144.51
  25   5   1  955.54  170.44
 -25  -5  -1  894.03  170.67
 -25  -5   1 1114.67  170.94
  25   5  -1  882.62  170.37
  25  -5  -1  644.95  170.17
 -25   5   1 1236.42  170.51
 -25   5  -1 1246.43  170.46
  25  -5   1  680.40  170.40
  25   7   1  627.26   77.39
 -25  -7  -1  265.89   76.96
 -25  -7   1  309.81   77.81
  25   7  -1  567.06   77.08
  25  -7  -1  429.59   76.94
 -25   7   1  342.33   76.91
 -25   7  -1  357.68   76.95
  25  -7   1  441.37   77.16
 -25  -9   1  148.79   24.96
  25   9   1  189.84   29.24
 -25  -9  -1  135.75   29.12
  25   9  -1  162.54   28.83
  25  -9  -1  122.15   28.38
 -25   9   1  148.80   28.52
 -25   9  -1  171.36   28.98
  25  -9   1  126.78   28.71
  25  11  -1  217.91   28.15
  25  11   1  256.32   35.29
 -25 -11  -1  146.11   34.82
 -25 -11   1  159.55   35.26
  25 -11  -1  163.62   34.13
 -25  11   1  151.57   34.36
 -25  11  -1  184.89   34.63
  25 -11   1  184.57   34.70
  25  13   1   26.85    9.94
 -25 -13  -1   21.76    9.62
 -25 -13   1   28.63   10.90
  25  13  -1   28.32    9.90
  25 -13  -1   19.17    8.21
 -25  13   1   22.46    7.19
 -25  13  -1   26.36    8.74
  25 -13   1   23.86    7.77
  25  15   1 1830.25  247.57
 -25 -15  -1 1082.46  247.15
 -25 -15   1 1483.80  247.70
  25  15  -1 1618.89  247.34
  25 -15  -1 1186.55  246.83
 -25  15   1 1287.39  247.06
 -25  15  -1 1484.64  247.31
  25 -15   1 1219.23  247.26
  25  17   1 2721.32  411.43
 -25 -17  -1 2008.46  411.12
 -25 -17   1 2633.12  411.71
  25  17  -1 2467.68  411.25
  25 -17  -1 1801.61  410.81
 -25  17   1 2357.30  411.18
 -25  17  -1 2798.10  411.44
 -25  17  -1 2218.69  411.42
  25 -17   1 2117.95  411.35
  25  19   1  669.39  102.44
 -25 -19  -1  483.50  102.10
 -25 -19   1  626.26  102.89
  25  19  -1  659.29  102.31
  25 -19  -1  405.94  101.63
 -25  19   1  651.20  102.28
 -25  19  -1  618.15  102.33
 -25  19  -1  589.92  102.25
  25 -19   1  473.67  102.05
  25  21   1  317.23   48.45
 -25 -21  -1  209.21   47.78
 -25 -21   1  295.35   48.90
  25  21  -1  295.31   47.64
  25 -21  -1  210.74   47.05
 -25  21   1  245.61   47.36
 -25  21  -1  263.09   47.67
 -25  21  -1  226.46   47.48
  25 -21   1  264.53   48.60
  25  23   1  158.22   31.15
 -25 -23  -1  134.76   30.59
 -25 -23   1  184.31   31.75
  25  23  -1  151.20   30.06
  25 -23  -1  110.21   29.99
 -25  23   1  173.74   30.35
 -25  23  -1  175.04   30.66
 -25  23  -1  173.90   30.12
 -25 -25  -1  130.56   26.43
  25  25   1  171.72   32.24
 -25 -25   1  167.44   33.05
  25  25  -1  184.42   31.96
  25 -25  -1  131.66   32.72
 -25  25   1  167.97   32.19
 -25  25  -1  196.43   32.06
 -25  25  -1  184.18   32.09
 -25 -27   1  217.88   28.09
  25  27   1   82.77   32.88
 -25 -27  -1  201.46   33.50
  25  27  -1   83.77   32.56
  25 -27  -1   69.37   33.23
 -25  27   1  231.49   33.67
 -25  27  -1  253.72   33.44
 -25  27  -1  274.81   33.86
  25  29   1 1174.22  173.44
 -25 -29   1  842.89  173.40
  25  29  -1 1175.11  173.30
  25 -29  -1  906.97  173.15
 -25  29   1  904.03  173.29
 -25  29  -1  866.85  173.09
 -25  29  -1  893.87  173.38
  25  31   1  853.44  141.87
 -25 -31  -1  626.24  141.72
 -25 -31   1  844.77  142.28
  25  31  -1  817.48  141.57
  25 -31  -1  740.82  141.96
 -25  31   1  838.21  142.12
 -25  31  -1  794.49  141.67
 -25  31  -1  809.59  141.89
  25  33   1   28.34   13.86
 -25 -33  -1   37.67   13.48
 -25 -33   1   58.34   17.21
  25  33  -1   34.16   11.58
  25 -33  -1   27.69   13.79
 -25  33   1   55.57   14.10
 -25  33  -1   40.21   11.85
 -25  33  -1   40.76   12.30
  25  35   1  115.09   21.94
 -25 -35  -1   74.47   22.69
 -25 -35   1  101.08   23.81
  25  35  -1   98.18   21.20
  25  35  -1  126.24   21.62
  25 -35  -1   86.55   22.91
 -25  35   1  107.36   22.76
 -25  35  -1   88.75   21.35
 -25  35  -1  100.19   21.65
  25  37   1  349.55   64.48
 -25 -37  -1  295.28   64.98
 -25 -37   1  348.69   65.32
  25  37  -1  380.98   64.36
  25  37  -1  397.89   64.37
  25 -37  -1  357.79   65.20
 -25  37   1  350.23   64.86
 -25  37  -1  301.19   64.27
 -25  37  -1  346.65   64.50
  25  39   1  293.41   57.56
 -25 -39  -1  310.07   58.63
 -25 -39   1  322.50   58.55
  25  39  -1  288.81   57.29
  25  39  -1  255.48   56.97
  25 -39  -1  240.69   58.25
 -25  39   1  375.69   58.27
 -25  39  -1  370.24   57.85
 -25  39  -1  333.73   57.82
  25  41   1   23.67   12.65
 -25 -41  -1   52.82   15.68
  25  41  -1   26.72   11.30
  25  41  -1   16.98   10.21
  25 -41  -1   20.26   14.29
  25 -41  -1   28.03   15.45
 -25  41   1   34.59   13.16
 -25  41  -1   44.65   12.09
 -25  41  -1   33.73   12.04
  25  43  -1  201.91   31.16
  25  43  -1  190.21   29.82
  25  43   1  171.21   36.00
 -25 -43  -1  181.28   37.26
  25 -43  -1  136.23   36.33
  25 -43  -1  146.06   37.02
 -25  43   1  177.72   35.90
 -25  43  -1  194.85   35.53
 -25  43  -1  199.79   35.76
  25  45  -1   15.58   10.57
  25  45   1   10.35   12.65
 -25 -45  -1   16.34   13.64
  25  45  -1   17.34   17.39
  25 -45  -1    6.67   17.28
  25 -45  -1    2.00   18.25
 -25  45   1   10.98   12.32
 -25  45  -1   14.20   15.31
 -25  45  -1    2.33   15.07
  25  47  -1   10.56   10.58
  25  47   1   12.11   14.56
 -25 -47  -1   12.64   10.37
  25  47  -1   10.80   18.14
  25 -47  -1    7.15   15.25
  25 -47  -1   16.19   20.04
 -25  47   1   11.61   12.55
 -25  47  -1   21.06   16.08
 -25  47  -1   12.41   15.67
  25  49  -1  214.52   38.57
  25  49   1  212.44   47.77
 -25 -49  -1  244.74   49.35
  25  49  -1  257.52   49.42
  25 -49  -1  219.72   50.45
  25 -49  -1  222.76   50.66
 -25  49  -1  280.21   49.50
 -25  49  -1  286.61   48.98
 -27  -1   1  123.50   21.40
  27   1   1  155.83   24.53
 -27  -1  -1  117.57   25.32
  27   1  -1  140.85   24.48
  27  -1  -1   96.97   23.84
 -27   1   1  132.51   24.10
 -27   1  -1  119.94   24.22
  27  -1   1   97.25   24.23
  27   3   1 1554.98  252.74
 -27  -3  -1 1297.12  252.97
 -27  -3   1 1517.07  253.18
  27   3  -1 1491.18  252.69
  27  -3  -1 1211.99  252.68
 -27   3   1 1419.63  252.71
 -27   3  -1 1601.74  252.76
  27  -3   1 1224.22  252.82
  27   5   1 2165.34  325.97
 -27  -5  -1 1561.12  326.03
 -27  -5   1 1682.44  326.26
  27   5  -1 2242.63  325.95
  27  -5  -1 1547.01  325.76
 -27   5   1 1833.35  325.86
 -27   5  -1 1870.45  325.80
  27  -5   1 1602.42  325.97
  27   7   1  194.13   50.87
 -27  -7  -1  343.24   51.50
 -27  -7   1  395.79   52.45
  27   7  -1  188.93   50.62
  27  -7  -1  144.99   50.51
 -27   7   1  450.20   50.96
 -27   7  -1  377.01   50.76
  27  -7   1  154.90   50.70
  27   9   1   60.84   18.34
 -27  -9  -1   92.25   18.33
 -27  -9   1  126.98   20.44
  27   9  -1   57.32   17.53
  27  -9  -1   53.16   17.04
 -27   9   1  107.23   17.54
 -27   9  -1  134.27   18.02
  27  -9   1   58.73   17.28
 -27 -11   1   88.88   16.25
  27  11   1   84.59   18.48
 -27 -11  -1   92.65   18.16
  27  11  -1   77.41   17.75
  27 -11  -1   52.17   17.34
 -27  11   1  109.45   17.22
 -27  11  -1  107.86   17.54
  27 -11   1   58.38   17.49
  27  13   1  147.09   22.62
 -27 -13  -1   92.68   22.37
 -27 -13   1  105.14   23.17
  27  13  -1  142.82   22.48
  27 -13  -1   64.46   21.51
 -27  13   1  103.62   21.86
 -27  13  -1  106.33   21.96
  27  15   1  559.91   90.04
 -27 -15  -1  446.70   89.85
 -27 -15   1  589.54   90.54
  27  15  -1  551.62   89.92
  27 -15  -1  339.76   89.20
 -27  15   1  514.28   89.64
 -27  15  -1  641.59   90.14
  27 -15   1  410.65   89.77
  27  17   1 1107.37  158.76
 -27 -17  -1  714.21  158.39
 -27 -17   1  862.36  158.93
  27  17  -1 1067.91  158.61
  27 -17  -1  698.49  158.08
 -27  17   1  875.16  158.38
 -27  17  -1  961.70  158.63
  27 -17   1  843.75  158.61
  27  19   1   50.07   17.54
 -27 -19  -1   81.89   16.15
 -27 -19   1  113.14   19.70
  27  19  -1   60.28   17.20
  27 -19  -1   41.14   17.37
 -27  19   1  103.82   17.46
 -27  19  -1  105.68   17.10
 -27  19  -1   94.62   16.85
  27 -19   1   50.90   17.92
  27  21   1  128.80   24.84
 -27 -21  -1   87.38   23.82
 -27 -21   1  137.40   25.73
  27  21  -1  116.53   23.94
  27 -21  -1   81.55   22.93
 -27  21   1  120.74   23.73
 -27  21  -1  139.62   23.38
 -27  21  -1  140.49   23.98
  27 -21   1  112.40   25.53
  27  23   1  174.29   25.19
 -27 -23  -1   76.28   23.83
 -27 -23   1  101.00   25.49
  27  23  -1  162.68   24.00
  27 -23  -1  118.19   22.99
 -27  23   1   93.93   23.06
 -27  23  -1  101.70   23.29
 -27  23  -1   88.86   23.00
  27  25   1  112.02   23.39
 -27 -25  -1   98.74   23.33
 -27 -25   1  111.63   24.05
  27  25  -1  124.49   22.55
  27 -25  -1   80.02   22.13
 -27  25   1  104.15   22.28
 -27  25  -1  140.53   22.86
 -27  25  -1  109.96   22.39
  27  27   1  383.14   47.40
 -27 -27  -1  158.44   47.00
 -27 -27   1  188.50   47.23
  27  27  -1  432.41   47.53
  27 -27  -1  288.38   46.72
 -27  27   1  168.26   46.91
 -27  27  -1  158.54   46.67
 -27  27  -1  187.81   46.67
 -27 -29   1 1126.53  155.21
  27  29   1 1064.96  205.62
 -27 -29  -1 1109.60  205.88
  27  29  -1 1057.28  205.63
  27 -29  -1  795.29  205.27
 -27  29   1 1371.66  206.20
 -27  29  -1 1362.83  205.97
 -27  29  -1 1484.87  206.36
  27  31   1  925.30  148.83
 -27 -31  -1  660.28  148.61
 -27 -31   1  930.42  149.25
  27  31  -1  853.37  148.56
  27 -31  -1  650.38  148.37
 -27  31   1  937.47  148.92
 -27  31  -1  820.92  148.65
 -27  31  -1  878.35  148.94
 -27 -33   1    7.32   11.22
  27  33   1   20.02   11.53
 -27 -33  -1    7.98   10.42
  27  33  -1   25.44    9.04
 -27  33   1   21.82   13.59
 -27  33  -1    5.25    9.61
 -27  33  -1    5.10    9.22
  27  35   1   43.16   16.68
 -27 -35  -1   60.05   16.92
 -27 -35   1   79.93   19.06
  27  35  -1   53.10   15.33
  27  35  -1   58.23   15.60
  27 -35  -1   48.02   18.94
 -27  35   1   78.53   18.04
 -27  35  -1   76.01   16.43
 -27  35  -1   80.75   16.18
 -27 -37  -1  337.77   53.04
  27  37   1  309.80   66.05
 -27 -37   1  433.35   67.38
  27  37  -1  323.09   65.86
  27  37  -1  330.19   65.90
  27 -37  -1  296.91   67.27
 -27  37   1  402.57   66.92
 -27  37  -1  406.16   66.47
 -27  37  -1  403.15   66.43
  27  39  -1  563.20   92.34
  27  39   1  611.41  120.82
 -27 -39  -1  643.73  121.42
 -27 -39   1  726.79  121.66
  27  39  -1  648.09  120.72
  27 -39  -1  602.40  121.48
 -27  39   1  736.70  121.55
 -27  39  -1  782.65  121.23
 -27  39  -1  743.10  121.26
  27  41   1  141.28   24.90
 -27 -41  -1   59.71   24.95
  27  41  -1  207.84   28.09
  27  41  -1  129.71   24.61
  27 -41  -1  141.27   26.89
 -27  41   1   65.16   24.52
 -27  41  -1   73.41   27.38
 -27  41  -1   55.29   23.61
  27  43   1   61.51   16.79
 -27 -43  -1   26.61   18.74
  27  43  -1   66.26   20.19
  27  43  -1   53.04   15.71
  27 -43  -1   54.41   17.69
  27 -43  -1   57.00   21.85
 -27  43   1   32.30   15.80
 -27  43  -1   48.48   21.01
 -27  43  -1   45.11   17.06
  27  45  -1    8.58   12.45
 -27  45  -1    3.02   11.74
  27  45   1   11.69   12.95
 -27 -45  -1    8.16   15.38
  27  45  -1    4.85   12.82
  27 -45  -1    2.03   17.82
  27 -45  -1   14.65   16.40
 -27  45   1   16.37   12.53
 -27  45  -1    5.97   18.41
  27  47   1   28.87   16.18
 -27 -47  -1   22.15   16.87
  27  47  -1   25.09   18.43
  27  47  -1   19.34   15.20
  27 -47  -1   27.20   19.92
  27 -47  -1   13.01   18.21
 -27  47   1   10.89   13.73
 -27  47  -1   22.69   19.80
 -27  47  -1   27.63   17.51
  29   1  -1  101.03   19.92
  29   1   1  127.28   24.30
 -29  -1  -1  131.38   25.31
 -29  -1   1  130.16   25.19
 -29   1   1  151.67   24.73
 -29   1  -1  130.04   24.15
  29  -1   1   89.50   24.39
  29   3   1 1430.81  248.56
 -29  -3  -1 1314.12  248.92
 -29  -3   1 1339.17  249.01
  29   3  -1 1435.68  248.51
 -29   3   1 1585.08  248.76
 -29   3  -1 1470.49  248.51
  29  -3   1 1195.27  248.72
  29   5   1 2342.69  422.47
 -29  -5  -1 2252.53  422.70
 -29  -5   1 2792.96  423.12
  29   5  -1 2314.95  422.40
  29  -5  -1 1753.24  422.38
 -29   5   1 3105.19  422.65
 -29   5  -1 2844.69  422.59
  29  -5   1 1691.99  422.48
  29   7   1  516.32   59.13
 -29  -7  -1  229.51   58.77
 -29  -7   1  267.51   59.59
  29  -7  -1  338.59   58.33
 -29   7   1  265.77   58.27
 -29   7  -1  271.02   58.52
  29  -7   1  334.17   58.60
  29   9   1   63.28   13.38
 -29  -9  -1   37.28   12.82
 -29  -9   1   44.71   15.38
  29   9  -1   41.05   10.62
  29  -9  -1   41.67   10.99
 -29   9   1   42.13   11.68
 -29   9  -1   44.88   10.92
  29  -9   1   39.81   11.73
  29  11   1   14.96    9.68
 -29 -11  -1    4.32    8.52
 -29 -11   1   -0.43    9.71
  29  11  -1   17.24    8.16
  29 -11  -1   13.72    8.02
 -29  11   1    2.00    6.29
 -29  11  -1   -2.76    6.51
  29 -11   1    7.40    6.28
  29  13   1   32.45   10.95
 -29 -13  -1   29.29   10.73
 -29 -13   1   27.84   12.05
  29  13  -1   30.93   10.60
  29 -13  -1   22.38   10.15
 -29  13   1   34.63    9.12
 -29  13  -1   40.30    9.91
  29 -13   1   24.15    8.91
  29  15   1   70.63   17.07
 -29 -15  -1   76.38   17.05
 -29 -15   1  101.01   18.59
  29  15  -1   61.05   15.59
  29 -15  -1   36.56   15.35
 -29  15   1   90.43   15.61
 -29  15  -1  110.04   16.74
  29 -15   1   49.15   15.68
 -29 -17   1  141.92   24.18
  29  17   1  139.71   28.14
 -29 -17  -1  127.24   27.93
  29  17  -1  152.23   27.96
  29 -17  -1   97.13   26.96
 -29  17   1  145.80   27.32
 -29  17  -1  191.80   27.74
  29 -17   1  143.00   30.00
  29  19   1   51.08   12.93
 -29 -19  -1   30.25   12.15
 -29 -19   1   40.20   14.47
  29  19  -1   40.56   12.31
  29 -19  -1   31.68   10.30
 -29  19   1   41.25   12.28
 -29  19  -1   37.70   10.84
 -29  19  -1   30.62   10.98
  29 -19   1   40.83   13.32
  29  21   1  161.66   26.73
 -29 -21  -1   86.28   25.57
 -29 -21   1  109.65   27.30
  29  21  -1  174.72   26.01
  29 -21  -1  111.87   26.24
 -29  21   1  120.96   25.37
 -29  21  -1  117.55   25.14
 -29  21  -1  112.91   25.34
  29 -21   1  139.93   27.69
  29  23   1   11.90   12.05
 -29 -23  -1   19.17   10.48
 -29 -23   1   23.11   13.78
  29  23  -1    8.55   10.32
  29 -23  -1    9.33   11.86
 -29  23   1   27.61    9.91
 -29  23  -1   28.05    8.62
 -29  23  -1   14.29    7.72
  29 -23   1    8.97   11.42
  29  25   1  141.53   29.16
 -29 -25  -1  132.88   29.07
 -29 -25   1  179.43   30.08
  29  25  -1  150.43   29.03
  29 -25  -1   95.72   27.95
 -29  25   1  166.93   28.96
 -29  25  -1  152.87   28.46
 -29  25  -1  145.04   28.37
  29  27   1   14.54   18.75
 -29 -27  -1  108.43   20.25
 -29 -27   1  119.29   20.72
  29  27  -1   16.68   17.97
  29 -27  -1   28.55   19.31
 -29  27   1  153.56   21.34
 -29  27  -1  135.09   19.36
 -29  27  -1  139.78   19.24
  29  29   1 1023.82  170.91
 -29 -29  -1  760.91  170.87
 -29 -29   1  922.34  171.07
  29  29  -1 1246.20  171.22
  29 -29  -1  861.21  170.77
 -29  29  -1  892.43  170.96
 -29  29  -1 1001.27  171.21
  29  31   1  898.21  159.09
 -29 -31  -1  702.57  159.09
 -29 -31   1  887.79  159.49
  29  31  -1 1012.98  159.20
  29 -31  -1  686.70  158.87
 -29  31   1  897.39  159.23
 -29  31  -1 1116.45  159.92
 -29  31  -1  949.42  159.37
  29  33   1   16.16   12.48
 -29 -33  -1   43.99   13.27
 -29 -33   1   24.70   16.30
  29  33  -1   19.36   10.52
  29 -33  -1   11.06   11.67
 -29  33   1   30.35   14.89
 -29  33  -1   38.71   17.05
 -29  33  -1   35.06   13.78
  29  35   1  105.59   20.84
 -29 -35  -1   55.21   20.51
 -29 -35   1   69.22   23.06
  29  35  -1  111.31   20.00
  29  35  -1   89.40   18.74
  29 -35  -1   91.97   20.91
 -29  35   1   66.71   21.29
 -29  35  -1  113.70   24.31
 -29  35  -1   82.46   21.44
  29  37  -1  429.47   60.82
  29  37   1  413.97   77.34
 -29 -37  -1  335.99   77.54
 -29 -37   1  423.16   78.24
  29  37  -1  404.41   77.10
  29 -37  -1  362.91   78.03
 -29  37   1  433.29   78.09
 -29  37  -1  518.17   78.97
 -29  37  -1  478.91   77.97
  29  39   1 1090.84  211.81
 -29 -39  -1  891.60  211.99
 -29 -39   1  998.64  212.26
  29  39  -1 1532.37  212.72
  29  39  -1 1396.39  212.10
  29 -39  -1  995.85  212.30
 -29  39   1 1032.36  212.19
 -29  39  -1 1435.31  212.89
 -29  39  -1 1251.58  212.30
  29  41   1  175.16   41.33
 -29 -41  -1  252.48   42.75
  29  41  -1  204.63   42.57
  29  41  -1  182.00   40.53
  29 -41  -1  132.22   41.46
 -29  41   1  185.68   41.33
 -29  41  -1  303.46   44.04
 -29  41  -1  247.19   42.12
  29  43   1   36.11   17.91
 -29 -43  -1   21.82   16.20
  29  43  -1   48.80   18.30
  29  43  -1   36.48   13.31
  29 -43  -1   25.78   15.70
  29 -43  -1   28.00   19.16
 -29  43   1    0.35   13.62
 -29  43  -1   42.86   20.09
 -29  43  -1   27.28   15.39
  29  45   1    2.09   11.74
 -29 -45  -1    1.34   14.98
  29  45  -1   -4.14   16.94
  29  45  -1    4.82   11.44
  29 -45  -1    4.80   14.92
  29 -45  -1    6.14   15.47
 -29  45   1    1.60   12.23
 -29  45  -1    8.34   19.40
 -29  45  -1   -0.03   15.45
  29  47   1   47.19   18.85
 -29 -47  -1   30.36   18.51
  29  47  -1   41.99   20.26
  29  47  -1   36.66   17.17
  29 -47  -1   40.70   18.62
  29 -47  -1   39.81   22.66
 -29  47   1   30.72   16.05
 -29  47  -1   41.19   22.47
 -29  47  -1   42.13   19.57
  31   1   1  193.29   31.27
 -31  -1  -1  138.37   31.78
 -31  -1   1  134.74   31.74
  31   1  -1  179.19   31.13
  31  -1  -1  130.30   31.09
 -31   1   1  177.24   31.62
 -31   1  -1  172.87   31.31
  31  -1   1  143.46   31.41
  31   3   1 1249.66  212.99
 -31  -3  -1 1270.44  213.51
 -31  -3   1 1096.90  213.40
  31   3  -1 1180.42  212.87
  31  -3  -1 1131.79  213.04
 -31   3   1 1293.31  213.11
 -31   3  -1 1253.91  212.92
  31  -3   1 1112.31  213.24
  31   5   1 2470.03  398.53
 -31  -5  -1 1870.04  398.60
 -31  -5   1 2434.84  399.07
  31   5  -1 2376.83  398.39
  31  -5  -1 2068.85  398.52
 -31   5   1 2439.90  398.58
 -31   5  -1 2237.56  398.39
  31  -5   1 2054.11  398.67
  31   7   1  611.21  104.93
 -31  -7  -1  516.90  104.95
 -31  -7   1  582.96  105.57
  31   7  -1  638.78  104.84
  31  -7  -1  458.38  104.61
 -31   7   1  617.86  104.71
 -31   7  -1  682.62  104.95
  31  -7   1  529.93  104.94
  31   9   1  397.94   65.84
 -31  -9  -1  320.06   65.86
 -31  -9   1  366.52   66.59
  31   9  -1  376.67   65.45
  31  -9  -1  298.22   65.22
 -31   9   1  363.26   65.57
 -31   9  -1  423.35   65.53
  31  -9   1  303.38   65.95
  31  11   1   84.80   16.72
 -31 -11  -1   54.86   16.23
 -31 -11   1   52.25   16.67
  31  11  -1   84.93   15.56
  31 -11  -1   70.16   15.70
 -31  11   1   49.45   15.36
 -31  11  -1   56.41   15.49
  31 -11   1   70.89   16.62
  31  13   1   75.09   17.62
 -31 -13  -1   77.72   17.73
 -31 -13   1   87.31   18.70
  31  13  -1   82.33   17.13
  31 -13  -1   55.03   16.50
 -31  13   1   81.18   17.29
 -31  13  -1  102.70   17.70
  31 -13   1   55.37   18.20
  31  15   1  234.74   28.76
 -31 -15  -1   60.65   27.68
 -31 -15   1   70.91   28.75
  31  15  -1  215.22   28.22
  31 -15  -1  158.01   28.00
 -31  15   1   75.92   27.02
 -31  15  -1   98.51   29.57
  31 -15   1  190.06   28.71
  31  17   1   23.32   17.16
 -31 -17  -1  102.97   17.59
 -31 -17   1  114.76   19.06
  31  17  -1   21.28   16.83
  31 -17  -1   15.97   15.62
 -31  17   1  115.10   16.70
 -31  17  -1  186.47   21.19
  31 -17   1   23.74   17.55
  31  19   1  332.21   50.49
 -31 -19  -1  215.29   50.13
 -31 -19   1  261.21   50.36
  31  19  -1  321.59   50.40
  31 -19  -1  198.20   49.56
 -31  19   1  270.71   50.24
 -31  19  -1  344.81   51.18
 -31  19  -1  216.77   50.10
  31 -19   1  270.65   50.51
  31  21  -1  205.62   36.09
  31  21   1  244.49   45.45
 -31 -21  -1  221.42   45.20
 -31 -21   1  261.93   46.38
  31 -21  -1  145.56   44.19
 -31  21   1  301.05   45.08
 -31  21  -1  350.22   46.48
 -31  21  -1  283.01   45.33
  31 -21   1  179.88   44.87
  31  23   1    8.78   11.96
 -31 -23  -1    1.54   10.03
 -31 -23   1    5.60   13.50
  31  23  -1   14.30   10.04
  31 -23  -1   11.18   10.56
 -31  23   1    7.84    9.57
 -31  23  -1    5.91   12.72
 -31  23  -1    2.50    9.47
  31 -23   1   11.34    9.18
  31  25   1  239.08   39.21
 -31 -25  -1  146.84   38.25
 -31 -25   1  174.02   39.19
  31  25  -1  252.01   38.67
  31 -25  -1  162.81   37.85
 -31  25   1  172.79   39.21
 -31  25  -1  233.72   39.56
 -31  25  -1  214.05   38.64
  31  27   1   63.39   16.36
 -31 -27  -1   60.84   16.92
 -31 -27   1   73.21   17.84
  31  27  -1   63.58   16.77
  31 -27  -1   31.09   15.60
 -31  27   1   69.09   18.72
 -31  27  -1   86.17   20.90
 -31  27  -1   75.40   17.20
  31  29  -1  507.19   78.16
  31  29   1  501.32  101.20
 -31 -29  -1  511.86  101.54
 -31 -29   1  562.12  101.84
  31 -29  -1  399.27  100.92
 -31  29   1  611.64  101.76
 -31  29  -1  779.05  102.47
 -31  29  -1  680.33  102.06
  31  31   1  361.46   71.34
 -31 -31  -1  338.13   71.60
 -31 -31   1  407.85   72.27
  31  31  -1  393.37   71.21
  31 -31  -1  283.28   71.03
 -31  31   1  385.94   71.66
 -31  31  -1  500.25   72.57
 -31  31  -1  462.09   72.28
  31  33   1    4.57   11.26
 -31 -33  -1    1.47   12.11
 -31 -33   1    1.87   15.33
  31  33  -1    6.98    8.87
  31 -33  -1    3.19   11.16
 -31  33   1   -0.10   13.70
 -31  33  -1   11.04   15.24
 -31  33  -1   -0.71   12.58
  31  35   1   32.13   14.34
 -31 -35  -1   38.40   15.70
 -31 -35   1   54.26   17.78
  31  35  -1   25.94   12.52
  31 -35  -1   19.23   14.64
 -31  35   1   43.78   15.09
 -31  35  -1   50.58   18.16
 -31  35  -1   46.37   15.48
  31  37   1  253.83   45.22
 -31 -37  -1  272.65   57.55
 -31 -37   1  270.93   58.03
  31  37  -1  389.07   58.60
  31  37  -1  358.05   57.13
  31 -37  -1  250.57   57.92
 -31  37   1  301.92   57.75
 -31  37  -1  348.44   58.66
 -31  37  -1  277.35   57.16
 -31 -39  -1 1185.26  161.34
  31  39   1 1038.35  211.69
 -31 -39   1 1189.51  212.43
  31  39  -1 1288.65  212.54
  31  39  -1 1174.85  211.75
  31 -39  -1  858.16  212.01
 -31  39   1 1134.81  212.32
 -31  39  -1 1560.05  213.29
 -31  39  -1 1312.36  212.24
 -31 -41   1  312.65   59.00
  31  41  -1  429.25   58.38
  31  41   1  396.22   74.17
 -31 -41  -1  364.94   75.55
  31  41  -1  510.63   75.66
  31 -41  -1  381.17   74.69
 -31  41   1  305.02   74.28
 -31  41  -1  471.72   76.80
 -31  41  -1  422.41   74.78
  31  43   1  178.64   38.77
 -31 -43  -1  173.68   38.70
  31  43  -1  214.80   39.30
  31  43  -1  161.86   36.51
  31 -43  -1  131.52   37.78
 -31  43   1  147.88   38.20
 -31  43  -1  268.15   42.18
 -31  43  -1  192.43   37.99
  31  45   1    6.64   17.26
 -31 -45  -1   16.77   16.03
  31  45  -1    7.08   17.64
  31  45  -1   -4.66   11.98
  31 -45  -1    8.50   15.86
  31 -45  -1   15.17   18.91
 -31  45   1   11.70   16.24
 -31  45  -1   21.32   21.89
 -31  45  -1   10.96   14.72
  33   1   1   48.29   12.94
 -33  -1  -1   36.77   13.48
 -33  -1   1   47.31   14.03
  33   1  -1   40.37   12.38
  33  -1  -1   28.64   12.60
 -33   1   1   57.95   14.14
 -33   1  -1   61.14   14.48
  33  -1   1   33.07   13.20
  33   3   1  537.22   92.72
 -33  -3  -1  484.97   93.22
 -33  -3   1  549.82   93.39
  33   3  -1  534.95   92.56
  33  -3  -1  429.70   92.72
 -33   3   1  590.76   92.83
 -33   3  -1  535.02   92.66
  33  -3   1  437.97   92.75
  33   5   1 1011.49  184.36
 -33  -5  -1  995.66  184.73
 -33  -5   1 1028.03  185.08
  33   5  -1 1007.57  184.18
  33  -5  -1  854.17  184.29
 -33   5   1 1222.16  184.61
 -33   5  -1 1137.19  184.31
  33   7   1 1243.48  223.36
 -33  -7  -1 1193.39  223.50
 -33  -7   1 1315.97  223.88
  33   7  -1 1232.11  223.19
 -33   7   1 1290.29  223.37
 -33   7  -1 1478.39  223.52
  33  -7   1 1021.35  223.42
  33   9   1  781.34  124.98
 -33  -9  -1  596.55  124.87
 -33  -9   1  673.77  125.31
  33   9  -1  815.86  124.87
  33  -9  -1  542.50  124.54
 -33   9   1  703.14  124.83
 -33   9  -1  797.81  124.94
  33  -9   1  596.58  124.91
  33  11   1   92.60   20.66
 -33 -11  -1   86.12   20.77
 -33 -11   1  104.21   21.34
  33  11  -1   67.59   19.71
  33 -11  -1   66.17   19.99
 -33  11   1  101.50   20.04
 -33  11  -1  133.09   21.16
  33  13   1   33.65   11.73
 -33 -13  -1   30.97   11.99
 -33 -13   1   32.93   13.02
  33  13  -1   26.94   10.82
  33 -13  -1   26.46   11.68
 -33  13   1   34.21   10.03
 -33  13  -1   42.21   12.91
  33 -13   1   25.18   11.49
  33  15   1  172.27   44.88
 -33 -15  -1  269.49   45.22
 -33 -15   1  342.30   46.34
  33  15  -1  178.35   44.48
  33 -15  -1  120.51   44.66
 -33  15   1  295.75   45.09
 -33  15  -1  420.59   46.22
  33 -15   1  169.29   45.07
  33  17   1  172.99   22.39
 -33 -17  -1   27.94   20.98
 -33 -17   1   56.31   22.42
  33  17  -1  163.74   21.72
  33 -17  -1  130.19   21.81
 -33  17   1   42.67   20.34
 -33  17  -1   46.70   22.37
  33 -17   1  132.17   24.06
  33  19   1  121.34   22.11
 -33 -19  -1   78.29   21.67
 -33 -19   1   94.69   23.71
  33  19  -1  123.78   21.88
  33 -19  -1   64.51   21.43
 -33  19   1   76.84   21.53
 -33  19  -1  120.51   24.92
  33 -19   1  111.76   22.17
  33  21   1  139.93   21.36
 -33 -21  -1   59.68   20.32
 -33 -21   1   80.66   22.38
  33  21  -1  125.54   20.86
  33 -21  -1   80.96   19.10
 -33  21   1   63.13   19.62
 -33  21  -1   94.08   22.26
 -33  21  -1   65.65   20.99
  33 -21   1   88.56   20.04
  33  23   1   31.57   13.34
 -33 -23  -1    9.67   11.72
 -33 -23   1   16.22   14.89
  33  23  -1   50.97   12.08
 -33  23   1   16.42   13.95
 -33  23  -1    7.19   14.44
 -33  23  -1    6.34   10.65
  33 -23   1   24.00   12.59
  33  25   1  205.22   37.76
 -33 -25  -1  183.20   37.25
 -33 -25   1  177.60   37.92
  33  25  -1  192.40   37.12
  33 -25  -1  148.09   37.70
 -33  25   1  185.82   38.11
 -33  25  -1  259.35   40.24
 -33  25  -1  178.27   37.16
  33  27   1  529.69   88.53
 -33 -27  -1  364.99   88.33
 -33 -27   1  414.75   88.68
  33  27  -1  662.41   88.85
  33 -27  -1  405.55   88.25
 -33  27   1  450.63   88.98
 -33  27  -1  570.68   89.52
 -33  27  -1  479.00   88.80
  33  29   1  453.23   84.20
 -33 -29  -1  405.22   84.32
 -33 -29   1  424.27   84.71
  33  29  -1  484.86   84.39
  33 -29  -1  357.72   84.01
 -33  29   1  471.92   85.04
 -33  29  -1  640.99   86.27
 -33  29  -1  484.11   84.82
  33  31   1   62.81   16.38
 -33 -31  -1   47.93   16.74
 -33 -31   1   53.68   19.17
  33  31  -1   70.43   16.66
  33 -31  -1   47.16   16.21
 -33  31   1   49.22   17.12
 -33  31  -1   64.72   19.14
 -33  31  -1   54.17   17.86
  33  33   1   82.29   19.36
 -33 -33  -1   62.71   19.81
 -33 -33   1   71.77   22.17
  33  33  -1   86.66   19.49
  33 -33  -1   73.41   20.84
 -33  33   1   58.37   21.32
 -33  33  -1   92.30   21.88
 -33  33  -1   65.18   20.23
  33  35   1   32.64   11.47
 -33 -35  -1    4.20   14.28
 -33 -35   1   16.21   17.35
  33  35  -1   32.60   16.79
  33 -35  -1   21.04   13.35
 -33  35   1    9.51   13.37
 -33  35  -1   13.78   19.90
 -33  35  -1   15.18   13.68
  33  37   1  321.97   65.80
 -33 -37  -1  349.11   67.97
 -33 -37   1  317.38   66.96
  33  37  -1  456.36   67.53
  33  37  -1  351.90   65.86
  33 -37  -1  241.47   66.72
 -33  37   1  307.84   67.24
 -33  37  -1  447.09   67.71
 -33  37  -1  395.51   66.59
  33  39  -1 1061.32  119.04
  33  39   1  833.33  154.16
 -33 -39  -1  730.39  155.31
 -33 -39   1  816.26  154.78
  33  39  -1  952.78  154.26
  33 -39  -1  752.83  154.90
 -33  39   1  622.75  154.70
 -33  39  -1 1058.23  156.06
 -33  39  -1  868.97  154.59
  33  41   1  399.67   84.67
 -33 -41  -1  492.22   87.15
 -33 -41   1  445.30   85.69
  33  41  -1  547.89   86.41
  33  41  -1  402.32   84.28
  33 -41  -1  351.61   85.37
 -33  41   1  379.49   85.17
 -33  41  -1  670.98   88.27
 -33  41  -1  488.80   85.49
  33  43  -1  284.44   44.25
  33  43   1  294.80   53.54
 -33 -43  -1  278.37   55.57
  33  43  -1  278.97   51.68
  33 -43  -1  281.64   54.34
 -33  43   1  181.94   51.98
 -33  43  -1  263.61   56.07
 -33  43  -1  289.04   52.90
  35   1   1   50.78   13.28
 -35  -1  -1   33.03   15.59
 -35  -1   1   49.86   14.51
  35   1  -1   45.53   13.19
  35  -1  -1   36.86   13.34
 -35   1   1   37.00   13.65
 -35   1  -1   41.76   15.10
  35  -1   1   52.55   13.94
  35   3   1  120.36   23.16
 -35  -3  -1  111.71   23.81
 -35  -3   1  102.00   24.32
  35   3  -1  121.90   22.84
  35  -3  -1   80.49   22.26
 -35   3  -1  129.52   22.56
  35  -3   1   94.23   22.87
  35   5   1  579.43  104.26
 -35  -5  -1  571.79  104.74
 -35  -5   1  612.18  105.23
  35   5  -1  477.54  103.66
  35  -5  -1  505.78  104.10
 -35   5   1  703.93  104.40
 -35   5  -1  638.81  104.22
  35   7   1 1900.03  298.37
 -35  -7  -1 1469.99  298.39
 -35  -7   1 1646.26  298.66
  35   7  -1 1794.25  298.11
  35  -7  -1 1531.92  298.21
 -35   7   1 1670.31  298.24
 -35   7  -1 1830.52  298.21
  35  -7   1 1501.21  298.50
  35   9   1  869.77  132.18
 -35  -9  -1  619.63  132.01
 -35  -9   1  685.87  132.28
  35   9  -1  903.29  132.03
  35  -9  -1  570.93  131.79
 -35   9   1  763.40  132.06
  35  -9   1  661.01  132.43
  35  11   1   67.22   16.75
 -35 -11  -1   52.36   16.20
 -35 -11   1   58.20   17.11
  35  11  -1   79.38   16.61
  35 -11  -1   54.31   15.82
 -35  11   1   61.83   15.96
  35 -11   1   66.14   17.99
  35  13   1   64.47   17.22
 -35 -13  -1   64.15   17.81
 -35 -13   1   69.75   18.53
  35  13  -1   76.54   16.86
  35 -13  -1   56.33   17.30
 -35  13   1   76.54   16.31
 -35  13  -1   93.93   18.29
  35 -13   1   55.59   17.27
  35  15   1  261.72   35.21
 -35 -15  -1   93.36   34.54
 -35 -15   1  103.34   35.31
  35  15  -1  243.26   34.53
  35 -15  -1  217.75   34.63
 -35  15   1  102.82   33.87
 -35  15  -1  128.92   35.02
  35 -15   1  224.69   35.29
  35  17   1   49.79   19.70
 -35 -17  -1  117.04   20.17
 -35 -17   1  122.86   21.56
  35  17  -1   52.38   18.86
  35 -17  -1   35.79   19.79
 -35  17   1  105.49   18.53
 -35  17  -1  176.02   23.59
  35 -17   1   44.18   20.29
  35  19   1   33.72   14.27
 -35 -19  -1   56.14   14.39
 -35 -19   1   68.35   17.44
  35  19  -1   35.86   13.62
  35 -19  -1   19.55   12.88
 -35  19   1   51.77   12.76
 -35  19  -1   67.27   16.87
  35 -19   1   24.28   14.25
  35  21   1   19.09   13.18
 -35 -21  -1   32.42   12.21
 -35 -21   1   28.29   15.46
  35  21  -1   17.66   11.79
  35 -21  -1    5.74   10.76
 -35  21   1   31.67   14.55
 -35  21  -1   51.47   18.03
 -35  21  -1   27.19   11.48
  35 -21   1   13.29   11.08
  35  23   1   48.16   15.89
 -35 -23  -1   42.60   14.69
 -35 -23   1   46.95   17.42
  35  23  -1   43.06   14.53
  35 -23  -1   20.20   13.86
 -35  23   1   59.32   15.09
 -35  23  -1   66.21   20.44
 -35  23  -1   44.41   13.86
  35 -23   1   21.95   13.37
  35  25   1  356.19   60.91
 -35 -25  -1  282.27   60.49
 -35 -25   1  322.06   61.04
  35  25  -1  361.19   60.59
  35 -25  -1  256.50   60.85
 -35  25   1  345.61   60.72
 -35  25  -1  416.13   62.03
 -35  25  -1  342.72   60.55
  35 -25   1  253.43   60.11
  35  27  -1  899.38  127.08
  35  27   1  834.46  167.38
 -35 -27  -1  848.38  167.73
 -35 -27   1  919.05  167.83
  35 -27  -1  699.78  167.38
 -35  27   1  984.30  167.86
 -35  27  -1 1328.04  168.99
 -35  27  -1 1086.92  168.29
  35  29   1  283.74   45.68
 -35 -29  -1  182.74   46.14
 -35 -29   1  176.52   46.09
  35  29  -1  325.59   46.15
  35 -29  -1  263.12   46.22
 -35  29   1  164.32   45.72
 -35  29  -1  269.41   47.73
 -35  29  -1  217.00   45.92
  35  31   1   32.25   13.53
 -35 -31  -1   23.65   14.36
 -35 -31   1    6.44   16.19
  35  31  -1   25.90   12.92
  35 -31  -1   16.60   13.16
 -35  31   1   11.31   16.28
 -35  31  -1   14.47   20.37
 -35  31  -1   14.94   13.72
  35  33   1   88.27   23.91
 -35 -33  -1   63.48   23.97
 -35 -33   1  111.35   26.56
  35  33  -1  124.07   25.22
  35 -33  -1   61.17   25.16
 -35  33   1   99.16   24.03
 -35  33  -1  122.90   28.85
 -35  33  -1  123.80   24.57
  35  35   1   16.80   15.10
 -35 -35  -1   12.19   21.47
 -35 -35   1   20.78   18.37
  35  35  -1   29.25   16.46
  35 -35  -1   12.22   14.04
 -35  35   1    2.58   16.37
 -35  35  -1    8.08   17.39
 -35  35  -1    5.33   14.15
  35  37   1  151.15   32.58
 -35 -37  -1  154.91   36.90
 -35 -37   1  129.66   34.38
  35  37  -1  212.03   34.74
  35  37  -1  176.15   32.59
  35 -37  -1  136.80   34.76
 -35  37   1  126.11   33.44
 -35  37  -1  172.78   35.72
 -35  37  -1  133.08   34.85
  35  39   1  184.21   47.66
 -35 -39  -1  270.05   51.32
 -35 -39   1  280.18   49.89
  35  39  -1  236.82   49.60
  35  39  -1  227.00   47.79
  35 -39  -1  155.20   49.57
 -35  39   1  213.64   49.01
 -35  39  -1  390.58   52.73
 -35  39  -1  292.79   49.72
  35  41   1  337.65   67.57
 -35 -41  -1  420.79   71.12
 -35 -41   1  379.43   69.53
  35  41  -1  411.98   70.00
  35  41  -1  298.46   67.49
  35 -41  -1  319.51   71.00
 -35  41   1  240.72   69.18
 -35  41  -1  470.04   71.96
 -35  41  -1  413.76   69.17
  37   1   1   12.76   10.32
 -37  -1  -1   -4.20   11.09
 -37  -1   1    4.35   11.58
  37   1  -1    4.67   10.52
  37  -1  -1    3.19    8.48
 -37   1   1    4.84    9.46
 -37   1  -1   11.31   13.68
  37  -1   1    6.79   11.02
  37   3   1   68.82   13.23
 -37  -3  -1    9.27   13.61
 -37  -3   1   18.86   17.11
  37   3  -1   75.02   13.18
  37  -3  -1   45.07   13.51
 -37   3   1   15.34   14.69
 -37   3  -1   17.09   13.74
  37  -3   1   64.00   13.21
  37   5   1  281.15   36.90
 -37  -5  -1  103.34   36.60
 -37  -5   1  101.98   37.67
  37   5  -1  254.44   36.32
  37  -5  -1  229.53   36.62
 -37   5   1  111.61   36.76
 -37   5  -1  135.97   36.75
  37  -5   1  248.76   36.99
  37   7  -1 1068.75  192.71
  37   7   1 1606.10  258.34
 -37  -7  -1 1470.92  258.62
 -37  -7   1 1475.87  258.72
  37  -7  -1 1266.18  258.26
 -37   7   1 1577.27  258.33
 -37   7  -1 1841.07  258.35
  37  -7   1 1389.34  258.47
  37   9   1  739.97  131.55
 -37  -9  -1  672.15  131.69
 -37  -9   1  724.73  131.95
  37   9  -1  741.54  131.33
  37  -9  -1  590.36  131.47
 -37   9   1  794.40  131.71
 -37   9  -1  911.70  131.80
  37  -9   1  656.30  131.75
  37  11   1   51.43   16.42
 -37 -11  -1   69.23   16.18
 -37 -11   1   65.89   17.16
  37  11  -1   56.57   14.30
 -37  11   1   55.18   15.91
  37 -11   1   57.80   17.94
  37  13   1  191.05   34.16
 -37 -13  -1  164.39   34.29
 -37 -13   1  166.06   35.12
  37  13  -1  186.57   34.05
  37 -13  -1  123.59   33.93
 -37  13   1  177.74   33.75
 -37  13  -1  222.60   36.08
  37 -13   1  135.00   34.09
  37  15   1   65.29   26.76
 -37 -15  -1  156.85   27.90
 -37 -15   1  172.08   28.81
  37  15  -1   70.73   26.35
 -37  15   1  170.59   26.87
 -37  15  -1  244.02   30.13
  37 -15   1   56.01   27.20
  37  17   1  285.06   42.18
 -37 -17  -1  130.43   41.66
 -37 -17   1  163.70   42.40
  37  17  -1  280.13   41.58
  37 -17  -1  237.58   42.32
 -37  17   1  147.32   41.18
 -37  17  -1  201.07   42.38
  37 -17   1  255.02   42.61
  37  19   1  151.30   27.62
 -37 -19  -1   83.78   27.08
 -37 -19   1  107.39   29.03
  37  19  -1  182.57   27.09
  37 -19  -1  125.92   28.01
 -37  19   1   98.46   27.87
 -37  19  -1  138.44   28.90
  37 -19   1  133.52   29.31
  37  21   1   57.21   17.53
 -37 -21  -1   59.11   16.92
 -37 -21   1   76.34   19.85
  37  21  -1   49.79   16.18
  37 -21  -1   50.62   17.99
 -37  21   1   62.87   17.32
 -37  21  -1   89.18   19.93
 -37  21  -1   66.83   16.53
  37 -21   1   40.31   16.17
  37  23   1   90.97   18.91
 -37 -23  -1   44.67   19.23
 -37 -23   1   50.13   19.83
  37  23  -1   71.18   17.08
  37 -23  -1   53.02   16.90
 -37  23   1   54.82   19.61
 -37  23  -1   56.35   19.83
 -37  23  -1   49.63   16.56
  37 -23   1   81.06   16.89
  37  25   1  262.17   49.82
 -37 -25  -1  245.79   50.30
 -37 -25   1  249.57   50.00
  37  25  -1  359.53   49.71
  37 -25  -1  192.52   49.47
 -37  25   1  230.88   50.27
 -37  25  -1  331.54   51.06
 -37  25  -1  234.40   49.19
  37 -25   1  213.26   48.96
  37  27   1 1200.34  212.54
 -37 -27  -1 1143.53  213.04
 -37 -27   1 1077.53  212.71
  37  27  -1 1432.70  212.92
  37 -27  -1 1041.70  212.53
 -37  27   1 1052.04  212.86
 -37  27  -1 1407.88  213.51
 -37  27  -1 1197.64  212.83
  37  29   1  279.39   77.44
 -37 -29  -1  457.86   79.08
 -37 -29   1  448.86   78.81
  37  29  -1  382.23   78.39
  37 -29  -1  263.63   77.89
 -37  29   1  454.64   79.12
 -37  29  -1  640.81   80.25
 -37  29  -1  535.40   78.78
  37  31   1  110.00   29.27
 -37 -31  -1  125.06   30.34
 -37 -31   1  156.06   31.81
  37  31  -1  145.29   31.02
  37 -31  -1   91.26   30.58
 -37  31   1  121.01   29.99
 -37  31  -1  173.17   32.68
 -37  31  -1  180.63   30.37
  37  33   1  152.48   31.07
 -37 -33  -1  151.11   35.71
 -37 -33   1  132.84   32.57
  37  33  -1  190.05   31.92
  37 -33  -1  128.28   33.53
 -37  33   1  112.89   32.20
 -37  33  -1  128.17   33.10
 -37  33  -1  108.86   30.69
  37  35  -1   38.10   15.01
  37  35   1   44.92   17.84
 -37 -35  -1   44.50   25.01
 -37 -35   1   57.41   21.02
  37 -35  -1   10.69   17.15
 -37  35   1   32.83   16.97
 -37  35  -1   55.84   19.37
 -37  35  -1   52.05   20.49
  37  37   1   56.50   19.37
 -37 -37  -1   74.91   27.32
 -37 -37   1   54.42   21.81
  37  37  -1   48.67   21.25
  37  37  -1   55.13   18.10
  37 -37  -1   61.28   23.57
 -37  37   1   44.39   22.69
 -37  37  -1   70.40   21.94
 -37  37  -1   90.18   23.06
  37  39   1   51.57   16.98
 -37 -39  -1   52.39   27.04
 -37 -39   1   38.74   20.36
  37  39  -1   46.32   20.48
  37  39  -1   40.57   16.49
  37 -39  -1   42.52   23.16
 -37  39   1   22.29   18.54
 -37  39  -1   50.22   20.52
 -37  39  -1   65.77   20.25
  39   1   1    7.96   11.00
 -39  -1  -1   16.11   12.02
 -39  -1   1   10.77   12.57
  39   1  -1   17.01   11.49
  39  -1  -1   -2.23   12.40
 -39   1   1   23.18   14.54
 -39   1  -1    7.25   15.06
  39  -1   1    7.86   13.21
  39   3   1  127.58   30.53
 -39  -3  -1  152.65   31.40
 -39  -3   1  166.83   33.16
  39   3  -1  129.66   30.61
  39  -3  -1  106.73   30.88
 -39   3   1  195.69   31.51
 -39   3  -1  233.46   33.03
  39  -3   1  113.93   30.84
  39   5   1   79.63   30.77
 -39  -5  -1  197.51   32.09
 -39  -5   1  233.25   33.70
  39   5  -1   78.39   30.45
 -39   5   1  225.08   32.87
  39   7   1  869.84  136.32
 -39  -7  -1  696.65  136.49
 -39  -7   1  649.76  136.48
  39   7  -1  767.40  135.80
  39  -7  -1  629.82  136.16
 -39   7   1  806.43  136.62
 -39   7  -1  886.38  136.74
  39  -7   1  720.19  136.70
  39   9   1  374.71   59.85
 -39  -9  -1  283.49   59.97
 -39  -9   1  263.52   59.95
  39   9  -1  337.02   59.28
 -39   9   1  329.61   59.54
 -39   9  -1  332.11   59.79
  39  -9   1  294.87   60.53
  39  11   1   47.35   14.32
 -39 -11  -1   29.99   14.00
 -39 -11   1   33.85   15.19
  39  11  -1   49.45   14.20
  39 -11  -1   38.10   16.49
 -39  11   1   35.46   14.99
 -39  11  -1   56.03   18.20
  39 -11   1   30.47   14.26
  39  13   1  103.97   24.08
 -39 -13  -1   89.69   24.04
 -39 -13   1  103.35   25.50
  39  13  -1  129.74   24.34
  39 -13  -1   96.52   25.34
 -39  13   1  126.26   26.33
 -39  13  -1  126.28   25.82
  39 -13   1   99.24   25.65
  39  15   1  342.88   59.66
 -39 -15  -1  266.09   59.50
 -39 -15   1  273.37   60.18
  39  15  -1  374.67   59.56
  39 -15  -1  296.31   60.41
 -39  15  -1  365.34   61.08
  39 -15   1  287.81   59.78
  39  17   1  359.21   69.32
 -39 -17  -1  368.61   69.81
 -39 -17   1  358.98   69.99
  39  17  -1  382.46   68.99
 -39  17   1  332.99   69.06
 -39  17  -1  462.42   70.24
  39 -17   1  350.45   70.36
  39  19   1  429.54   83.48
 -39 -19  -1  449.75   84.06
 -39 -19   1  520.76   84.76
  39  19  -1  471.56   83.25
  39 -19  -1  379.83   83.57
 -39  19   1  434.60   83.97
 -39  19  -1  586.30   84.55
  39 -19   1  380.28   83.74
  39  21  -1  221.31   33.99
  39  21   1  259.84   42.96
 -39 -21  -1  189.70   42.73
 -39 -21   1  218.74   43.87
  39 -21  -1  183.80   43.14
 -39  21   1  210.18   42.70
 -39  21  -1  289.49   44.08
 -39  21  -1  184.52   42.13
  39 -21   1  199.86   42.26
  39  23   1   62.03   18.60
 -39 -23  -1   57.64   18.80
 -39 -23   1   66.72   19.31
  39  23  -1   52.05   16.22
  39 -23  -1   27.96   18.83
 -39  23   1   59.08   20.10
 -39  23  -1   82.20   20.32
 -39  23  -1   62.51   16.48
  39 -23   1   37.15   15.97
  39  25   1  316.61   53.96
 -39 -25  -1  292.85   54.51
 -39 -25   1  217.65   53.74
  39  25  -1  272.36   52.40
  39 -25  -1  228.96   54.15
 -39  25   1  273.26   54.56
 -39  25  -1  372.73   55.44
 -39  25  -1  280.27   53.33
  39 -25   1  263.26   53.04
  39  27   1  948.36  195.32
 -39 -27  -1 1029.27  195.97
 -39 -27   1 1103.48  195.90
  39  27  -1 1254.35  195.95
  39 -27  -1  868.39  195.54
 -39  27   1 1016.09  196.07
 -39  27  -1 1407.11  197.15
 -39  27  -1 1138.76  195.89
  39  29   1  254.40   40.46
 -39 -29  -1  153.81   41.79
 -39 -29   1  145.14   41.06
  39  29  -1  309.43   42.03
  39 -29  -1  164.98   40.40
 -39  29  -1  207.28   42.49
 -39  29  -1  165.23   40.29
  39  31   1  173.94   31.46
 -39 -31  -1  119.35   33.98
 -39 -31   1  133.51   32.96
  39  31  -1  183.43   32.46
  39 -31  -1  124.25   32.41
 -39  31   1  106.62   31.30
 -39  31  -1  160.14   33.87
 -39  31  -1  129.28   31.25
  39  33   1   64.14   21.72
 -39 -33  -1   66.61   30.78
 -39 -33   1   76.03   24.29
  39  33  -1   70.44   22.24
  39 -33  -1   72.13   29.64
 -39  33   1   67.17   24.80
 -39  33  -1  100.84   28.25
 -39  33  -1   79.44   24.63
 -39 -35   1   50.80   20.50
  39  35   1  100.03   23.01
 -39 -35  -1   86.45   33.06
  39  35  -1  104.64   23.89
 -39  35   1   45.48   21.66
 -39  35  -1   80.35   27.08
 -39  35  -1   62.66   24.84
  41   1   1    3.43   11.08
 -41  -1  -1   -2.90   12.55
 -41  -1   1    2.23   16.05
  41   1  -1   11.04   12.05
  41  -1  -1   14.28   11.32
 -41   1   1   -3.59   15.56
 -41   1  -1   -0.44   15.85
  41  -1   1    6.10   11.52
  41   3   1  130.39   23.08
 -41  -3  -1   67.86   23.34
 -41  -3   1   67.26   25.10
  41   3  -1  137.77   23.29
  41  -3  -1  116.73   22.60
 -41   3   1   81.47   24.94
 -41   3  -1   86.22   25.96
  41  -3   1  109.52   23.47
  41   5   1  120.07   18.46
 -41  -5  -1   29.19   17.96
 -41  -5   1   27.64   20.45
  41   5  -1  118.71   17.84
 -41   5   1   31.24   19.88
 -41   5  -1   28.27   21.26
  41  -5   1   99.72   20.80
  41   7   1  382.76   69.87
 -41  -7  -1  356.49   70.00
 -41  -7   1  377.43   70.18
  41   7  -1  356.15   69.29
  41  -7  -1  290.89   69.92
 -41   7   1  453.72   70.89
 -41   7  -1  501.47   70.74
  41  -7   1  294.74   70.56
  41   9   1  110.71   21.16
 -41  -9  -1   86.36   23.46
 -41  -9   1   70.89   21.36
  41   9  -1   86.22   19.61
  41  -9  -1   71.56   22.43
 -41   9   1   88.53   20.30
 -41   9  -1   85.19   24.66
  41  -9   1   74.68   21.28
  41  11   1   66.61   17.54
 -41 -11  -1   54.59   19.79
 -41 -11   1   65.12   18.21
  41  11  -1   41.55   16.33
  41 -11  -1   60.39   19.73
 -41  11   1   62.43   16.39
 -41  11  -1   61.93   17.95
  41 -11   1   43.67   18.89
  41  13   1  191.49   35.27
 -41 -13  -1  150.86   36.57
 -41 -13   1  141.79   35.56
  41  13  -1  188.27   34.66
  41 -13  -1  150.43   36.10
 -41  13   1  209.50   36.81
 -41  13  -1  193.86   35.84
  41 -13   1  142.08   34.84
  41  15   1  802.54  130.00
 -41 -15  -1  608.24  129.87
 -41 -15   1  680.17  130.25
  41  15  -1  862.13  129.82
  41 -15  -1  629.67  130.01
 -41  15   1  678.64  130.16
 -41  15  -1  799.88  130.81
  41 -15   1  648.52  130.27
  41  17   1  573.07  101.93
 -41 -17  -1  533.33  102.37
 -41 -17   1  576.15  102.80
  41  17  -1  591.16  101.87
  41 -17  -1  480.12  102.69
 -41  17   1  502.24  102.16
 -41  17  -1  712.92  102.89
  41 -17   1  492.07  102.83
  41  19   1  799.57  140.37
 -41 -19  -1  726.01  140.79
 -41 -19   1  740.06  141.11
  41  19  -1  828.41  140.22
  41 -19  -1  724.52  141.40
 -41  19   1  697.07  140.62
 -41  19  -1  925.87  141.65
  41 -19   1  759.34  140.68
  41  21   1  213.60   42.26
 -41 -21  -1  188.11   42.33
 -41 -21   1  266.92   43.64
  41  21  -1  181.72   40.87
 -41  21   1  223.50   42.23
 -41  21  -1  248.00   42.97
 -41  21  -1  199.04   41.35
  41 -21   1  175.36   41.31
  41  23   1   39.59   16.94
 -41 -23  -1   28.05   15.88
 -41 -23   1   42.70   19.14
  41  23  -1   40.92   16.95
  41 -23  -1   23.48   18.28
 -41  23   1   34.83   19.11
 -41  23  -1   45.14   18.36
 -41  23  -1   27.99   13.88
  41 -23   1   25.36   14.16
  41  25   1  152.31   29.86
 -41 -25  -1  117.93   30.91
 -41 -25   1  134.55   30.28
  41  25  -1  156.52   30.19
  41 -25  -1  108.50   29.34
 -41  25   1  105.59   31.27
 -41  25  -1  164.52   31.95
 -41  25  -1  125.25   28.43
  41 -25   1  112.06   28.12
  41  27   1  597.86  109.23
 -41 -27  -1  644.56  109.96
 -41 -27   1  566.94  109.44
  41  27  -1  671.86  109.40
  41 -27  -1  494.90  109.93
 -41  27   1  488.48  109.95
 -41  27  -1  750.09  110.82
 -41  27  -1  575.70  109.27
  41  29   1  105.17   28.75
 -41 -29  -1  141.88   32.41
 -41 -29   1  132.96   30.43
  41  29  -1  121.18   29.61
  41 -29  -1   76.64   32.93
 -41  29  -1  174.35   32.90
 -41  29  -1  157.51   29.39
  41  31   1   85.42   26.02
 -41 -31  -1  138.41   32.95
 -41 -31   1  107.32   28.58
  41  31  -1   82.74   26.75
  41 -31  -1   59.88   27.72
 -41  31   1   80.92   27.73
 -41  31  -1  161.70   32.59
 -41  31  -1  144.19   28.59
  41  33   1   43.25   17.91
 -41 -33  -1   25.55   22.06
 -41 -33   1   34.32   20.73
  41  33  -1   29.09   18.19
  41 -33  -1   24.07   19.47
 -41  33   1   18.78   21.73
 -41  33  -1   35.72   25.10
 -41  33  -1   23.30   20.75
  43   1   1    5.07   13.60
 -43  -1  -1   18.94   15.51
 -43  -1   1   17.80   15.67
  43   1  -1    7.92   15.46
  43  -1  -1    9.19   15.06
 -43   1   1    3.90   14.18
 -43   1  -1   -3.19   17.81
  43  -1   1    7.48   15.46
  43   3   1   18.57   14.95
 -43  -3  -1   35.67   16.28
 -43  -3   1   48.91   16.54
  43   3  -1   14.26   15.72
  43  -3  -1   13.54   15.50
 -43   3   1   28.27   14.76
 -43   3  -1   22.22   18.94
  43  -3   1   16.03   13.86
  43   5   1    9.57   14.61
 -43  -5  -1   39.42   15.82
 -43  -5   1   30.57   15.00
  43   5  -1    6.06   13.21
  43  -5  -1   -0.72   12.01
 -43   5   1   32.54   14.67
 -43   5  -1   43.61   16.37
  43   7   1   84.07   25.79
 -43  -7  -1  159.13   27.54
 -43  -7   1  139.39   26.13
  43   7  -1   76.43   24.38
  43  -7  -1   72.72   24.41
 -43   7   1  141.98   26.58
 -43   7  -1  170.51   29.77
  43  -7   1   70.92   27.51
  43   9   1    6.49   13.64
 -43  -9  -1   10.55   15.92
 -43  -9   1    9.36   13.61
  43   9  -1    6.28   11.18
 -43   9   1   18.49   12.00
 -43   9  -1   13.46   16.62
  43  -9   1   12.27   13.53
  43  11   1   70.01   18.48
 -43 -11  -1   71.12   21.21
 -43 -11   1   62.65   19.35
  43  11  -1   46.78   16.24
  43 -11  -1   41.49   18.48
 -43  11   1   56.83   19.92
 -43  11  -1   69.51   20.82
  43 -11   1   59.16   20.23
  43  13   1  132.70   27.99
 -43 -13  -1  140.08   29.74
 -43 -13   1  132.54   28.66
  43  13  -1  105.28   26.69
  43 -13  -1  106.09   29.89
 -43  13   1  143.36   30.20
 -43  13  -1  140.32   28.60
  43 -13   1   91.69   29.23
  43  15   1 1022.36  175.34
 -43 -15  -1 1005.71  175.72
 -43 -15   1 1002.42  175.83
  43  15  -1 1012.08  175.04
  43 -15  -1  793.03  175.65
 -43  15   1  968.58  175.69
 -43  15  -1 1149.24  175.94
  43 -15   1  849.23  175.33
  43  17   1  658.61  109.60
 -43 -17  -1  555.19  109.89
 -43 -17   1  641.16  110.59
  43  17  -1  668.92  109.62
  43 -17  -1  569.94  110.33
 -43  17   1  512.46  109.73
 -43  17  -1  592.65  110.38
  43 -17   1  605.59  110.19
  43  19   1  890.53  159.88
 -43 -19  -1  952.42  160.48
 -43 -19   1  942.84  161.18
  43  19  -1  959.85  159.63
  43 -19  -1  806.15  160.83
 -43  19   1  858.22  160.12
 -43  19  -1 1071.97  161.42
 -43  19  -1  760.22  159.78
  43 -19   1  746.91  160.09
  43  21   1  337.14   53.57
 -43 -21  -1  238.47   53.24
 -43 -21   1  279.54   55.05
  43  21  -1  321.64   53.52
  43 -21  -1  268.95   55.67
 -43  21   1  238.44   54.11
 -43  21  -1  287.93   54.28
 -43  21  -1  223.65   52.87
  43 -21   1  249.60   53.14
  43  23   1   18.24   14.70
 -43 -23  -1   29.90   16.05
 -43 -23   1    7.32   17.06
  43  23  -1   26.06   17.16
 -43  23   1   25.04   19.79
 -43  23  -1   27.73   18.56
 -43  23  -1   29.92   15.89
  43 -23   1   21.60   15.79
  43  25   1   57.06   17.64
 -43 -25  -1   32.07   18.80
 -43 -25   1   47.88   21.05
  43  25  -1   72.66   19.65
  43 -25  -1   65.89   23.07
 -43  25   1   34.95   21.92
 -43  25  -1   38.79   24.09
 -43  25  -1   41.36   18.51
  43 -25   1   42.72   16.48
  43  27   1  249.25   41.84
 -43 -27  -1  171.23   41.98
 -43 -27   1  207.49   42.85
  43  27  -1  259.38   42.75
  43 -27  -1  190.97   44.42
 -43  27   1  134.72   43.53
 -43  27  -1  221.61   43.82
 -43  27  -1  174.38   42.08
  43  29   1   98.43   25.25
 -43 -29  -1   79.58   25.64
 -43 -29   1  105.08   24.03
  43  29  -1  109.21   27.63
  43 -29  -1   96.18   30.11
 -43  29   1   85.41   29.58
 -43  29  -1  119.10   32.72
 -43  29  -1  100.39   26.36
  45   1   1   51.30   17.17
 -45  -1  -1   37.46   18.31
 -45  -1   1   33.64   18.02
  45   1  -1   45.84   17.57
  45  -1  -1   27.05   18.52
 -45   1   1   35.12   17.59
 -45   1  -1   34.83   21.74
  45   3   1   99.13   24.39
 -45  -3  -1  103.10   25.62
 -45  -3   1  111.95   26.72
  45   3  -1   88.14   24.88
  45  -3  -1   74.67   25.28
 -45   3   1  105.21   26.73
 -45   3  -1  114.24   25.64
  45  -3   1   71.81   25.72
  45   5   1  117.78   27.60
 -45  -5  -1  124.74   28.57
 -45  -5   1  113.44   27.11
  45   5  -1  110.46   28.09
  45  -5  -1   85.68   27.90
 -45   5   1  131.30   30.20
 -45   5  -1  164.72   31.67
  45  -5   1  104.89   27.66
  45   7  -1  147.58   21.06
  45   7   1  154.26   24.36
 -45  -7  -1   43.92   23.81
 -45  -7   1   37.34   22.60
  45  -7  -1  120.15   22.94
 -45   7   1   50.74   24.80
 -45   7  -1   48.00   24.68
  45  -7   1  116.67   26.34
  45   9   1  164.31   27.96
 -45  -9  -1   97.24   28.26
 -45  -9   1  106.85   27.70
  45   9  -1  187.80   29.44
  45  -9  -1  100.20   27.70
 -45   9   1   70.90   26.55
 -45   9  -1   96.29   29.40
  45  -9   1  104.80   27.35
  45  11   1   60.48   20.62
 -45 -11  -1   78.66   22.66
 -45 -11   1   60.93   21.36
  45  11  -1   83.28   22.52
  45 -11  -1   58.56   23.34
 -45  11   1   87.49   23.66
 -45  11  -1   74.02   23.53
  45 -11   1   61.51   20.21
  45  13   1  197.39   34.40
 -45 -13  -1  139.33   35.66
 -45 -13   1  125.96   34.85
  45  13  -1  204.51   34.80
 -45  13   1  109.88   36.14
 -45  13  -1  151.10   35.75
  45  15   1  957.37  164.80
 -45 -15  -1  928.03  165.81
 -45 -15   1  832.99  165.39
  45  15  -1 1097.61  165.05
  45 -15  -1  829.80  165.76
 -45  15  -1  926.02  165.24
  45 -15   1  783.77  165.44
  45  17   1  311.20   64.53
 -45 -17  -1  387.78   65.97
 -45 -17   1  406.79   66.63
  45  17  -1  375.38   65.63
  45 -17  -1  247.18   65.34
 -45  17   1  337.12   66.46
 -45  17  -1  411.64   66.56
  45 -17   1  271.31   65.45
  45  19   1  562.15   95.87
 -45 -19  -1  533.55   97.35
 -45 -19   1  565.58   97.21
  45  19  -1  626.45   96.64
 -45  19   1  488.05   96.91
 -45  19  -1  439.51   95.47
  45 -19   1  421.30   95.65
  45  21   1  102.39   25.97
 -45 -21  -1  112.85   28.00
 -45 -21   1  127.99   28.76
  45  21  -1  121.00   28.42
  45 -21  -1   94.54   29.43
 -45  21   1   95.21   27.31
 -45  21  -1  143.15   30.16
 -45  21  -1   96.34   25.24
  45 -21   1   81.11   25.15
  45  23   1   44.68   17.78
 -45 -23  -1   56.92   20.90
 -45 -23   1   56.09   22.07
  45  23  -1   48.94   16.56
  45 -23  -1   38.58   24.66
 -45  23   1   52.59   20.07
 -45  23  -1   55.03   22.63
 -45  23  -1   27.61   16.28
  45 -23   1   39.00   16.55
  45  25   1   21.11   15.65
 -45 -25  -1   37.35   18.59
 -45 -25   1   33.06   19.65
  45  25  -1   16.11   19.09
  45 -25  -1   15.54   24.53
 -45  25   1   17.22   18.19
 -45  25  -1   28.17   25.68
 -45  25  -1   19.11   14.37
  47   1   1   71.90   23.06
 -47  -1  -1   87.73   23.81
 -47  -1   1   95.35   23.82
  47   1  -1   87.96   23.81
  47  -1  -1   73.80   22.52
 -47   1   1   82.25   23.84
 -47   1  -1   73.17   27.60
  47  -1   1   69.71   25.08
  47   3   1  353.01   58.40
 -47  -3  -1  301.81   60.03
 -47  -3   1  291.46   58.42
  47   3  -1  346.71   58.38
  47  -3  -1  255.98   58.84
 -47   3   1  285.82   59.63
 -47   3  -1  291.81   59.14
  47  -3   1  262.45   58.19
  47   5   1  181.59   35.80
 -47  -5  -1  157.37   36.63
 -47  -5   1  178.59   36.74
  47   5  -1  208.73   35.34
  47  -5  -1  133.51   35.50
 -47   5   1  157.75   36.60
 -47   5  -1  170.71   39.04
  47  -5   1  130.33   37.60
  47   7   1   37.98   19.91
 -47  -7  -1   81.25   21.14
 -47  -7   1   80.77   21.76
  47   7  -1   27.95   17.93
  47  -7  -1    8.84   20.49
 -47   7   1   80.98   21.97
 -47   7  -1  115.42   26.65
  47  -7   1   14.78   22.08
  47   9   1   54.10   20.18
 -47  -9  -1   86.35   23.41
 -47  -9   1   77.77   22.74
  47   9  -1   51.95   21.04
  47  -9  -1   43.09   21.41
 -47   9   1   70.88   22.82
 -47   9  -1   97.16   27.15
  47  -9   1   56.19   20.66
  47  11   1   19.15   15.71
 -47 -11  -1   16.84   19.16
 -47 -11   1   21.34   17.69
  47  11  -1   25.92   17.96
 -47  11   1    5.13   17.49
 -47  11  -1   19.78   24.63
  47 -11   1    5.62   15.83
  47  13   1   68.13   23.09
 -47 -13  -1  111.31   26.59
 -47 -13   1  107.36   25.17
  47  13  -1   86.62   24.71
  47 -13  -1   49.33   27.65
 -47  13   1   76.21   27.72
 -47  13  -1  125.34   31.14
  47 -13   1   58.40   24.12
  47  15   1  445.28   83.51
 -47 -15  -1  511.45   85.90
 -47 -15   1  517.96   84.13
  47  15  -1  492.76   84.30
  47 -15  -1  366.97   84.62
 -47  15   1  406.79   85.26
 -47  15  -1  508.63   85.60
  47 -15   1  355.22   85.11
  47  17   1  208.75   35.87
 -47 -17  -1  182.62   39.67
 -47 -17   1  140.25   37.71
  47  17  -1  213.64   37.40
  47 -17  -1  152.74   40.18
 -47  17   1  122.53   38.48
 -47  17  -1  133.99   39.74
  47 -17   1  182.75   38.90
  47  19   1  246.77   45.83
 -47 -19  -1  269.08   48.34
 -47 -19   1  270.45   48.04
  47  19  -1  288.45   47.22
  47 -19  -1  202.89   47.37
 -47  19   1  211.73   48.31
 -47  19  -1  249.96   48.11
 -47  19  -1  155.21   44.75
  47 -19   1  156.35   46.12
  47  21   1   32.19   16.35
 -47 -21  -1   25.11   19.43
 -47 -21   1   13.79   20.39
  47  21  -1   43.62   19.99
  47 -21  -1   13.77   16.18
 -47  21   1   22.72   22.47
 -47  21  -1   13.33   21.20
 -47  21  -1   27.20   17.18
  47 -21   1   17.42   17.75
  49   1   1  132.42   27.54
 -49  -1  -1   88.42   27.33
 -49  -1   1   86.60   29.90
  49   1  -1  114.57   28.27
 -49   1   1   86.55   27.75
 -49   1  -1   86.20   28.51
  49  -1   1   86.54   26.53
  49   3   1  534.09   95.30
 -49  -3  -1  525.57   94.75
 -49  -3   1  491.01   94.65
  49   3  -1  579.47   94.88
  49  -3  -1  406.41   94.73
 -49   3   1  543.21   97.28
 -49   3  -1  540.06   95.53
  49  -3   1  435.69   95.13
  49   5   1  440.64   76.09
 -49  -5  -1  434.68   76.88
 -49  -5   1  395.36   76.69
  49   5  -1  427.64   75.68
  49  -5  -1  276.40   75.53
 -49   5   1  399.41   78.52
 -49   5  -1  559.71   78.75
  49  -5   1  278.36   76.44
  49   7   1   53.03   18.80
 -49  -7  -1    8.66   20.75
 -49  -7   1    8.45   18.57
  49   7  -1   40.82   16.47
  49  -7  -1   15.80   21.03
 -49   7   1   11.49   19.67
 -49   7  -1   11.48   22.26
  49  -7   1   23.88   16.61
  49   9   1   48.17   18.95
 -49  -9  -1   43.25   22.53
 -49  -9   1   38.78   20.51
  49   9  -1   61.43   18.75
  49  -9  -1   57.71   22.07
 -49   9   1   25.14   22.85
 -49   9  -1   35.56   22.60
  49  -9   1   47.62   18.60
  49  11   1    9.13   16.27
 -49 -11  -1   11.13   23.89
 -49 -11   1   20.93   18.23
  49  11  -1   14.40   17.51
  49 -11  -1   15.29   18.55
 -49  11   1    2.64   19.03
 -49  11  -1   -2.58   19.65
  49 -11   1    1.80   17.25
  49  13   1   44.35   16.97
 -49 -13  -1   15.09   24.73
 -49 -13   1   10.63   19.00
  49  13  -1   42.19   20.26
  49 -13  -1   18.38   19.28
 -49  13   1   15.99   23.65
 -49  13  -1   15.62   25.07
   0   0   2    7.41    4.86
   0   0  -2   10.62    4.10
   0   2   2 3634.28  664.05
   0  -2  -2 3856.85  664.01
   0  -2   2 4011.48  664.09
   0   2  -2 3599.83  663.98
   0   4   2    5.10    6.03
   0  -4  -2    0.44    4.27
   0  -4   2    0.68    4.73
   0   4  -2    2.10    4.67
   0   6   2  239.74   34.88
   0  -6  -2  167.19   34.83
   0  -6   2  162.32   34.78
   0   8   2    2.73    5.44
   0  -8  -2   -1.10    4.68
   0  -8   2    0.29    3.35
   0   8  -2   -2.91    3.87
   0  10   2  670.74  111.24
   0 -10  -2  584.30  111.26
   0 -10   2  518.55  111.20
   0  10  -2  700.09  111.10
   0  12   2    2.64    4.53
   0 -12  -2   -0.58    5.90
   0 -12   2    1.79    4.42
   0  12  -2    4.72    4.47
   0  14   2   28.80   11.99
   0 -14  -2   66.29   12.98
   0 -14   2   93.92   12.25
   0  14  -2   42.47   11.75
   0  16   2    1.32    5.07
   0 -16  -2   -0.92    6.87
   0 -16   2    2.44    4.13
   0  16  -2    3.22    4.77
   0  18   2   35.56   10.61
   0 -18  -2   51.63   11.85
   0 -18   2   54.27   10.34
   0  18  -2   38.58   10.11
   0  20   2    1.50    5.55
   0 -20  -2   -0.12    6.78
   0 -20   2   -0.67    4.31
   0  20  -2   -0.72    4.75
   0  20  -2    3.00    3.88
   0  22   2  106.09   30.94
   0 -22  -2  228.90   31.41
   0 -22   2  299.47   31.28
   0  22  -2   99.75   30.54
   0  22  -2   98.39   30.61
   0  24   2    3.94    5.93
   0 -24  -2    0.72    6.68
   0  24  -2    4.88    5.10
   0  24  -2   10.86    4.80
   0  26   2   79.96   16.07
   0 -26  -2   68.41   16.31
   0  26  -2   63.77   14.97
   0  26  -2   65.00   14.60
   0  28   2   -1.14    7.64
   0 -28  -2   -1.94    9.31
   0  28  -2    5.56    5.66
   0  28  -2    1.40    5.23
   0  30   2  133.30   29.24
   0 -30  -2  145.35   29.92
   0  30  -2  153.04   28.84
   0  30  -2  171.20   29.18
   0  32   2    3.77    7.87
   0 -32  -2    4.19   10.19
   0  32  -2    4.35    6.42
   0  32  -2    6.19    6.74
   0  34   2 7394.01 1247.47
   0 -34  -2 7222.03 1247.28
   0  34  -2 6598.00 1247.04
   0  34  -2 7189.21 1247.17
   0  36   2    1.22    8.56
   0 -36  -2   12.01   11.34
   0  36  -2    4.90    7.15
   0  36  -2    5.13    7.50
   0  38   2  122.47   27.43
   0 -38  -2  170.79   28.70
   0  38  -2  118.78   26.87
   0  38  -2  133.12   27.09
   0  40   2    1.52    5.52
   0 -40  -2   -4.31   11.74
   0  40  -2   -0.10    7.43
   0  40  -2   -4.77    7.69
   0  42   2  545.42   95.83
   0 -42  -2  575.78   96.29
   0  42  -2  456.48   95.46
   0  42  -2  542.66   95.95
   0  44   2    4.27    8.04
   0 -44  -2    4.52   11.88
   0 -44  -2    3.10   12.66
   0  44  -2   10.22    8.47
   0  44  -2   -1.44   11.09
   0  46   2  524.26  100.92
   0 -46  -2  502.64  101.42
   0 -46  -2  591.59  101.72
   0  46  -2  526.01  100.97
   0  46  -2  641.05  101.49
   0  48   2    7.31   12.42
   0 -48  -2    2.54   14.36
   0 -48  -2    0.93   12.36
   0  48  -2    4.97    9.12
   0  48  -2   11.01   12.20
   0  50   2  128.10   25.06
   0 -50  -2   99.06   26.02
   0 -50  -2   93.08   24.69
   0  50  -2  102.74   23.32
   0  50  -2  106.98   24.38
   0 -52  -2    0.58   20.03
   0 -52  -2   -5.51   12.94
   0  52  -2    3.91   13.15
   0  52  -2    2.10   16.15
   0 -54  -2  866.52  152.86
   0 -54  -2  794.48  151.89
   0  54  -2  801.96  151.72
   0  54  -2  898.93  152.24
   2   2   2   15.42    6.58
  -2  -2  -2    9.42    6.70
  -2  -2   2   26.40    6.27
   2   2  -2   29.49    6.26
   2  -2  -2   20.82    6.03
  -2   2   2   22.20    5.82
  -2   2  -2   16.12    5.80
   2  -2   2   14.80    5.95
   2   4   2  437.17   77.51
  -2  -4  -2  426.08   77.34
  -2  -4   2  506.93   77.61
   2   4  -2  371.03   77.35
   2  -4  -2  397.94   77.20
  -2   4   2  510.09   77.39
  -2   4  -2  445.73   77.32
   2  -4   2  398.57   77.39
   2   6   2   58.93   12.84
  -2  -6  -2   52.12   12.21
  -2  -6   2   59.27   12.52
   2   6  -2   58.03   11.94
   2  -6  -2   62.01   11.78
  -2   6   2   54.90   11.53
  -2   6  -2   52.14   12.26
   2  -6   2   52.05   11.76
   2   8   2  310.32   56.04
  -2  -8  -2  322.74   56.31
  -2  -8   2  337.43   56.04
   2   8  -2  294.82   55.81
  -2   8   2  307.25   55.93
  -2   8  -2  325.51   56.03
   2  -8   2  275.18   55.93
   2  10   2  585.87  103.18
  -2 -10  -2  573.44  103.16
  -2 -10   2  626.28  103.17
   2  10  -2  537.18  102.94
   2 -10  -2  537.60  102.82
  -2  10   2  541.50  103.03
  -2  10  -2  670.96  103.11
   2 -10   2  561.71  103.14
   2  12   2  363.80   88.78
  -2 -12  -2  538.57   89.11
  -2 -12   2  545.01   89.06
   2  12  -2  476.05   88.84
   2 -12  -2  465.89   88.79
  -2  12   2  570.65   89.02
  -2  12  -2  563.88   89.05
   2 -12   2  475.11   89.07
   2  14   2  121.10   26.29
  -2 -14  -2  150.53   26.75
  -2 -14   2  143.93   26.34
   2  14  -2  137.79   26.24
   2 -14  -2  134.13   25.97
  -2  14   2  146.17   26.10
  -2  14  -2  145.29   27.07
   2 -14   2  138.43   26.38
   2  16   2  165.90   31.78
  -2 -16  -2  162.97   32.12
  -2 -16   2  186.11   31.87
   2  16  -2  172.23   31.57
   2 -16  -2  149.97   31.50
  -2  16   2  195.36   31.80
  -2  16  -2  174.78   31.92
   2 -16   2  158.82   31.77
   2  18   2   75.49   16.08
  -2 -18  -2   78.83   16.86
  -2 -18   2   76.10   15.84
   2  18  -2   85.02   16.43
   2 -18  -2   80.01   15.90
   2 -18  -2   78.00   15.73
  -2  18   2   86.21   15.95
  -2  18  -2   70.62   16.04
   2 -18   2   71.98   15.98
   2  20   2  759.76  146.13
  -2 -20  -2  929.52  146.39
  -2 -20   2  841.01  146.12
   2  20  -2  814.44  145.97
   2 -20  -2  787.83  146.05
  -2  20   2  903.51  146.13
  -2  20  -2  759.96  146.08
   2 -20   2  787.31  146.17
   2  22   2  358.74   62.74
  -2 -22  -2  347.92   63.01
  -2 -22   2  353.06   62.68
   2  22  -2  329.46   62.40
   2 -22  -2  361.14   62.56
   2 -22  -2  359.63   62.61
  -2  22  -2  326.30   62.64
   2 -22   2  335.86   62.68
   2  24   2  378.19   63.86
  -2 -24  -2  278.25   63.81
  -2 -24   2  304.72   63.56
   2  24  -2  372.60   63.67
   2 -24  -2  434.23   63.90
   2 -24  -2  421.30   63.78
  -2  24  -2  288.49   63.64
   2 -24   2  344.98   63.66
   2  26   2   41.18   11.29
  -2 -26  -2   45.16   12.14
  -2 -26   2   39.11    9.50
   2  26  -2   27.03    9.49
   2  26  -2   28.56    9.17
   2 -26  -2   38.22    9.91
   2 -26  -2   37.31    9.31
  -2  26  -2   47.98   11.78
   2 -26   2   28.98   10.06
   2  28   2  123.73   21.77
  -2 -28  -2   68.88   21.88
   2  28  -2  108.96   20.61
   2  28  -2  114.77   20.77
   2 -28  -2  111.51   20.97
   2 -28  -2  115.32   20.84
  -2  28  -2   66.10   21.70
   2 -28   2  122.68   21.25
   2  30   2    8.36    8.65
  -2 -30  -2   -1.45   10.06
   2  30  -2    6.57    6.25
   2  30  -2    1.63    6.00
   2 -30  -2    7.51    6.68
   2 -30  -2    6.72    5.59
  -2  30  -2    2.99    9.09
   2 -30   2    9.89    7.50
   2  32   2 1002.81  179.23
  -2 -32  -2 1049.66  179.34
   2  32  -2  941.24  178.91
   2  32  -2 1041.60  179.22
   2 -32  -2 1011.96  179.29
   2 -32  -2  986.41  179.01
  -2  32  -2  992.35  179.28
   2 -32   2 1041.57  179.34
   2  34   2  169.15   34.23
  -2 -34  -2  180.25   35.00
   2  34  -2  152.87   33.66
   2  34  -2  180.37   33.98
   2 -34  -2  200.84   34.21
   2 -34  -2  178.56   33.88
  -2  34  -2  174.93   34.70
   2 -34   2  189.36   34.26
   2  36   2 1720.63  347.70
  -2 -36  -2 2198.36  347.97
   2  36  -2 1929.55  347.58
   2  36  -2 2029.44  347.68
   2 -36  -2 2034.16  347.89
   2 -36  -2 1890.83  347.65
  -2  36  -2 1936.31  347.86
   2 -36   2 1976.25  347.84
   2 -38   2    7.14    6.67
   2  38   2   15.87    9.44
  -2 -38  -2   14.53   12.10
   2  38  -2   11.77    7.91
   2  38  -2   10.35    8.19
   2 -38  -2   14.66    8.65
   2 -38  -2   10.85    8.42
  -2  38  -2    9.45   10.75
   2  40   2   96.61   18.13
  -2 -40  -2   64.86   19.54
   2  40  -2   64.85   18.11
   2  40  -2   82.84   17.59
   2 -40  -2  107.17   19.62
   2 -40  -2   90.47   18.73
  -2  40  -2   69.18   18.70
  -2  40  -2   67.02   19.40
   2 -40   2   58.34   17.29
   2  42   2   51.71   15.27
  -2 -42  -2   64.74   17.72
   2  42  -2   47.32   15.78
   2  42  -2   55.41   15.13
   2 -42  -2   73.97   17.58
   2 -42  -2   73.66   16.63
  -2  42  -2   53.48   16.68
  -2  42  -2   85.61   17.63
   2 -42   2   44.06   14.35
   2  44   2  882.92  158.31
  -2 -44  -2  791.59  158.24
   2  44  -2  817.92  158.08
   2  44  -2  968.42  158.54
   2 -44  -2 1038.41  158.95
   2 -44  -2  950.42  158.43
  -2  44  -2  758.75  158.20
  -2  44  -2  812.53  158.51
   2 -44   2  948.72  158.22
   2 -46   2  437.23   77.10
   2  46   2  378.53   99.72
  -2 -46  -2  580.81  100.61
  -2 -46  -2  600.71  100.93
   2  46  -2  554.95  100.09
   2  46  -2  611.62  100.53
   2 -46  -2  650.20  101.26
   2 -46  -2  634.37  100.48
  -2  46  -2  518.43  100.35
  -2  46  -2  574.11  100.83
   2  48   2   69.62   18.55
  -2 -48  -2   57.41   19.69
  -2 -48  -2   68.72   18.76
   2  48  -2   55.46   16.35
   2  48  -2   72.49   18.44
   2 -48  -2   72.07   18.44
   2 -48  -2   59.34   17.29
  -2  48  -2   71.78   21.02
  -2  48  -2   61.86   18.62
   2  50   2    8.07   12.53
  -2 -50  -2    5.21   14.44
  -2 -50  -2   -1.93   12.90
   2  50  -2    3.33    9.31
   2  50  -2    7.27   12.38
   2 -50  -2    5.81   12.26
   2 -50  -2    4.55   10.91
  -2  50  -2   -7.27   18.15
  -2  50  -2   -3.19   12.75
   2  52   2   42.85   16.41
  -2 -52  -2   23.23   18.01
  -2 -52  -2   42.97   17.15
   2  52  -2   54.72   16.72
   2  52  -2   76.45   19.16
   2 -52  -2   46.85   17.92
   2 -52  -2   60.31   19.38
  -2  52  -2   27.26   20.64
  -2  52  -2   28.43   16.38
  -2 -54  -2   15.23   18.73
  -2 -54  -2    6.82   13.78
   2  54  -2    9.83   13.85
   2  54  -2   12.01   16.97
   2 -54  -2    6.50   15.46
   2 -54  -2    4.18   16.99
  -2  54  -2    2.21   18.62
  -2  54  -2    3.46   13.81
   4   0   2    5.94    5.90
  -4   0  -2    3.80    4.38
   4   0  -2    4.44    4.10
  -4   0   2    4.56    3.79
   4   2   2 1399.01  261.25
  -4  -2  -2 1473.78  261.14
  -4  -2   2 1479.47  261.25
   4   2  -2 1520.78  261.10
   4  -2  -2 1395.85  261.05
  -4   2   2 1712.32  261.18
  -4   2  -2 1481.43  260.96
   4  -2   2 1379.58  261.11
   4   4   2   79.37   16.53
  -4  -4  -2   76.07   16.45
  -4  -4   2   96.28   16.55
   4   4  -2   74.80   16.28
   4  -4  -2   73.87   15.80
  -4   4   2   84.15   15.80
  -4   4  -2   95.31   16.03
   4  -4   2   75.12   15.85
   4   6   2  204.45   30.06
  -4  -6  -2  114.32   29.63
  -4  -6   2  165.07   29.83
   4   6  -2  158.99   29.87
   4  -6  -2  168.20   29.33
  -4   6   2  135.04   29.37
  -4   6  -2  157.04   29.60
   4  -6   2  177.53   29.59
   4   8   2  100.56   19.77
  -4  -8  -2  119.60   20.16
  -4  -8   2  103.57   19.73
   4   8  -2  102.63   19.40
   4  -8  -2   73.35   19.06
  -4   8   2  103.25   19.31
  -4   8  -2  111.17   19.59
   4  -8   2  100.82   19.47
   4  10   2  729.68  132.10
  -4 -10  -2  734.02  132.11
  -4 -10   2  778.06  132.18
   4  10  -2  782.36  132.01
   4 -10  -2  740.68  131.76
  -4  10   2  733.30  131.95
  -4  10  -2  712.52  132.01
   4 -10   2  732.75  132.07
   4  12   2 5321.02  848.81
  -4 -12  -2 4795.27  848.74
  -4 -12   2 4731.10  848.78
   4  12  -2 4820.10  848.56
   4 -12  -2 4824.81  848.45
  -4  12   2 4732.95  848.59
  -4  12  -2 4564.22  848.65
   4 -12   2 4767.22  848.70
   4  14   2  359.84   64.61
  -4 -14  -2  378.82   64.81
  -4 -14   2  384.89   64.67
   4  14  -2  358.24   64.53
   4 -14  -2  336.15   64.31
   4 -14  -2  351.20   64.43
  -4  14   2  373.87   64.46
  -4  14  -2  360.56   64.59
   4 -14   2  322.26   64.52
   4  16   2  266.83   47.78
  -4 -16  -2  247.04   48.03
  -4 -16   2  282.02   47.89
   4  16  -2  267.90   47.65
   4 -16  -2  271.78   47.55
   4 -16  -2  270.56   47.58
  -4  16   2  253.15   47.59
  -4  16  -2  260.01   47.69
   4 -16   2  236.53   47.70
   4  18   2   60.77   15.92
  -4 -18  -2   88.01   17.34
  -4 -18   2  107.28   16.68
   4  18  -2   78.81   16.40
   4 -18  -2   82.54   15.97
   4 -18  -2   81.77   15.95
  -4  18  -2   80.54   16.48
   4 -18   2   66.38   16.23
   4  20   2   28.36    9.00
  -4 -20  -2   29.77   10.52
  -4 -20   2   26.25    8.54
   4  20  -2   41.21    9.12
   4 -20  -2   36.64    8.07
   4 -20  -2   33.37    7.88
  -4  20  -2   28.34    9.00
   4 -20   2   26.61    8.34
   4  22   2 1070.69  187.65
  -4 -22  -2 1001.78  187.72
  -4 -22   2 1050.03  187.56
   4  22  -2 1055.27  187.45
   4 -22  -2 1129.68  187.62
   4 -22  -2 1122.20  187.57
  -4  22  -2 1024.29  187.62
   4 -22   2 1011.96  187.58
   4  24   2 1307.43  222.61
  -4 -24  -2 1307.83  222.76
  -4 -24   2 1277.82  222.59
   4  24  -2 1223.62  222.33
   4 -24  -2 1340.54  222.59
   4 -24  -2 1336.45  222.44
  -4  24  -2 1207.29  222.59
   4 -24   2 1051.12  222.48
   4  26   2   11.27    9.05
  -4 -26  -2   10.90   10.23
  -4 -26   2   21.43    7.36
   4  26  -2   25.80    7.78
   4  26  -2   16.32    6.90
   4 -26  -2   26.73    8.45
   4 -26  -2   22.72    6.70
  -4  26  -2   20.68    9.58
   4 -26   2   24.85    8.39
   4  28   2   32.26   11.01
  -4 -28  -2   31.56   12.10
  -4 -28   2   30.83   11.98
   4  28  -2   33.80    9.62
   4  28  -2   27.82    9.46
   4 -28  -2   29.51   10.41
   4 -28  -2   35.51    8.98
  -4  28  -2   45.03   11.56
   4 -28   2   39.02   10.27
   4  30   2    9.59    9.26
  -4 -30  -2    3.14    7.64
   4  30  -2   11.63    7.05
   4  30  -2   12.27    6.66
   4 -30  -2   21.30    7.49
   4 -30  -2   12.17    6.24
  -4  30  -2   12.87    9.61
   4 -30   2   16.20    7.79
   4  32   2   44.69   13.17
  -4 -32  -2   40.22   14.15
   4  32  -2   44.97   11.38
   4  32  -2   45.63   11.49
   4 -32  -2   42.51   11.82
   4 -32  -2   43.45   11.39
  -4  32  -2   55.01   13.67
   4 -32   2   45.49   12.07
   4 -34   2 2161.88  389.59
   4  34   2 3150.54  525.21
  -4 -34  -2 3194.61  525.31
   4  34  -2 2695.05  524.83
   4  34  -2 3399.93  525.30
   4 -34  -2 3204.25  525.25
   4 -34  -2 3004.21  524.96
  -4  34  -2 3069.85  525.25
   4  36   2  435.64   80.69
  -4 -36  -2  420.18   81.12
   4  36  -2  436.59   80.40
   4  36  -2  454.65   80.63
   4 -36  -2  446.51   80.72
   4 -36  -2  446.14   80.64
  -4  36  -2  462.00   80.82
  -4  36  -2  480.35   81.09
   4 -36   2  418.41   80.57
   4  38   2  101.85   23.48
  -4 -38  -2  141.64   25.18
   4  38  -2   93.33   22.83
   4  38  -2   93.87   23.03
   4 -38  -2  123.34   24.45
   4 -38  -2   89.43   23.56
  -4  38  -2  137.66   24.30
  -4  38  -2  151.88   24.73
   4 -38   2   90.28   22.89
   4  40   2   34.20   12.51
  -4 -40  -2   42.40   15.07
   4  40  -2   37.44   11.60
   4  40  -2   41.45   11.79
   4 -40  -2   45.14   14.37
   4 -40  -2   41.46   13.31
  -4  40  -2   39.87   13.74
  -4  40  -2   37.69   11.87
   4 -40   2   36.08   11.13
   4  42   2  326.79   55.35
  -4 -42  -2  394.01   70.74
   4  42  -2  368.61   69.74
   4  42  -2  352.11   69.81
   4 -42  -2  425.82   70.71
   4 -42  -2  392.00   70.05
  -4  42  -2  382.68   70.26
  -4  42  -2  428.99   70.65
   4 -42   2  366.06   69.72
   4 -44   2   19.98    9.27
   4  44   2   25.87   11.33
  -4 -44  -2   34.65   14.99
   4  44  -2   28.74   11.14
   4  44  -2   37.17   11.44
   4 -44  -2   44.05   16.75
   4 -44  -2   35.49   12.17
  -4  44  -2   29.63   14.19
  -4  44  -2   30.48   14.22
   4  46   2  376.54   72.72
  -4 -46  -2  384.83   73.62
   4  46  -2  364.89   72.54
   4  46  -2  474.74   73.52
   4 -46  -2  448.41   73.75
   4 -46  -2  372.42   72.84
  -4  46  -2  329.09   73.14
  -4  46  -2  428.84   73.55
  -4  48  -2  750.16  108.01
   4  48   2  689.93  139.96
  -4 -48  -2  659.74  140.36
  -4 -48  -2  727.18  140.48
   4  48  -2  747.20  139.93
   4  48  -2  897.58  140.46
   4 -48  -2  848.77  140.84
   4 -48  -2  798.79  140.17
  -4  48  -2  880.91  140.93
  -4 -50  -2   56.22   16.68
   4  50   2   72.08   18.68
  -4 -50  -2   58.37   20.61
   4  50  -2   59.46   19.15
   4  50  -2   95.64   21.35
   4 -50  -2   73.53   20.69
   4 -50  -2   86.76   18.63
  -4  50  -2   62.62   22.76
  -4  50  -2   63.86   20.92
   4  52  -2    4.10   11.11
   4  52   2    6.12   12.66
  -4 -52  -2    4.08   14.97
  -4 -52  -2    5.28   12.36
   4  52  -2    4.05   15.51
   4 -52  -2   -0.07   14.35
   4 -52  -2   12.01   16.52
  -4  52  -2    8.94   17.70
  -4  52  -2   -3.08   13.31
  -4 -54  -2  447.86   72.17
   4  54   2  459.42   90.79
  -4 -54  -2  453.69   91.64
   4  54  -2  499.89   91.09
   4  54  -2  541.29   91.85
   4 -54  -2  536.99   92.04
   4 -54  -2  581.38   92.37
  -4  54  -2  471.00   91.88
  -4  54  -2  451.78   91.31
   6   0   2 1057.24  187.56
  -6   0  -2 1025.65  187.57
   6   0  -2  945.91  187.36
  -6   0   2 1211.77  187.39
   6   2   2  130.43   26.34
  -6  -2  -2  134.57   26.70
  -6  -2   2  150.52   26.69
   6   2  -2  147.23   26.19
   6  -2  -2  137.15   25.71
  -6   2   2  137.12   25.75
  -6   2  -2  144.23   25.75
   6  -2   2  134.83   25.85
   6   4   2   21.86    7.40
  -6  -4  -2   17.25    7.73
  -6  -4   2   17.54    7.39
   6   4  -2   15.58    7.21
  -6   4   2   19.65    4.99
  -6   4  -2   26.84    5.90
   6  -4   2   17.02    5.40
   6   6   2   47.16   11.01
  -6  -6  -2   40.76   10.56
  -6  -6   2   43.62   10.62
   6   6  -2   44.46   10.56
   6  -6  -2   38.98    9.22
  -6   6  -2   55.75    9.98
   6  -6   2   43.94    9.69
   6   8   2   70.23   13.95
  -6  -8  -2   57.28   13.46
  -6  -8   2   62.68   13.36
   6   8  -2   60.38   12.76
   6  -8  -2   62.68   12.23
  -6   8  -2   57.21   13.05
   6  -8   2   63.92   12.78
   6  10   2 1204.40  193.43
  -6 -10  -2 1080.71  193.37
  -6 -10   2 1136.09  193.42
   6  10  -2 1056.75  193.25
   6 -10  -2 1072.97  192.99
   6 -10  -2 1109.65  193.22
  -6  10   2 1013.75  193.18
  -6  10  -2 1199.28  193.34
   6 -10   2  938.52  193.31
   6  12   2 2451.81  428.05
  -6 -12  -2 2046.41  427.95
  -6 -12   2 2573.49  428.16
   6  12  -2 2581.59  427.89
   6 -12  -2 2416.52  427.70
   6 -12  -2 2630.31  427.89
  -6  12  -2 2199.70  427.87
   6 -12   2 2558.13  428.05
   6  14   2  485.83   87.07
  -6 -14  -2  483.13   87.08
  -6 -14   2  494.72   87.05
   6  14  -2  533.52   86.93
   6 -14  -2  443.68   86.64
   6 -14  -2  494.16   86.77
  -6  14  -2  442.36   86.80
   6 -14   2  506.21   86.93
   6  16   2  122.21   21.58
  -6 -16  -2  114.79   26.53
  -6 -16   2  134.74   26.04
   6  16  -2  159.74   26.13
   6 -16  -2  150.42   25.50
   6 -16  -2  148.66   25.60
  -6  16  -2  128.48   25.96
   6 -16   2  131.24   25.97
   6  18   2  119.70   21.23
  -6 -18  -2  100.03   21.94
  -6 -18   2  109.61   21.19
   6  18  -2  107.21   21.08
   6 -18  -2  115.82   20.66
   6 -18  -2  116.84   20.70
  -6  18  -2   97.22   21.49
   6 -18   2   94.92   20.87
   6  20   2  879.30  160.09
  -6 -20  -2  929.04  160.26
  -6 -20   2  953.85  160.22
   6  20  -2  881.33  160.03
   6 -20  -2  905.93  160.03
   6 -20  -2  948.02  159.93
  -6  20  -2  838.00  160.12
   6 -20   2  876.98  160.17
   6  22   2 1400.06  248.08
  -6 -22  -2 1426.47  248.18
  -6 -22   2 1352.46  248.02
   6  22  -2 1524.73  248.05
   6 -22  -2 1474.04  248.04
   6 -22  -2 1505.01  247.93
  -6  22  -2 1257.72  248.05
   6 -22   2 1244.43  248.11
   6  24   2  986.82  154.56
  -6 -24  -2  826.13  154.51
  -6 -24   2  744.30  154.24
   6  24  -2  807.92  154.19
   6 -24  -2  911.59  154.34
   6 -24  -2  937.28  154.21
  -6  24  -2  854.92  154.38
   6 -24   2  881.06  154.48
   6  26   2   67.64   14.41
  -6 -26  -2   66.54   15.39
  -6 -26   2   72.53   16.48
   6  26  -2   50.60   13.44
   6 -26  -2   56.20   13.24
   6 -26  -2   54.64   13.15
  -6  26  -2   54.81   14.45
   6 -26   2   55.30   13.65
   6  28   2  163.59   33.73
  -6 -28  -2  197.04   34.38
  -6 -28   2  231.19   34.49
   6  28  -2  149.40   33.13
   6  28  -2  169.23   33.46
   6 -28  -2  169.11   33.31
   6 -28  -2  162.57   32.98
  -6  28  -2  186.48   33.88
   6 -28   2  165.90   33.45
   6  30   2   67.71   16.39
  -6 -30  -2   74.78   17.42
  -6 -30   2   93.96   17.51
   6  30  -2   61.18   15.34
   6  30  -2   68.12   15.42
   6 -30  -2   61.49   16.05
   6 -30  -2   54.87   14.92
  -6  30  -2   77.98   16.63
   6 -30   2   73.25   15.62
   6  32   2 1336.76  210.56
  -6 -32  -2 1156.70  210.57
   6  32  -2 1105.27  210.04
   6  32  -2 1182.48  210.30
   6 -32  -2 1297.68  210.45
   6 -32  -2 1270.32  210.19
  -6  32  -2 1021.09  210.21
  -6  32  -2 1181.87  210.43
   6 -32   2 1137.67  210.30
   6  34   2  269.23   51.47
  -6 -34  -2  280.23   51.94
   6  34  -2  238.85   50.83
   6  34  -2  280.81   51.07
   6 -34  -2  306.40   51.59
   6 -34  -2  285.53   51.16
  -6  34  -2  291.89   51.51
  -6  34  -2  267.28   51.55
   6 -34   2  273.31   51.00
   6  36   2   20.56    9.03
  -6 -36  -2   26.55   12.73
   6  36  -2   10.09    8.78
   6  36  -2   21.66    9.16
   6 -36  -2   16.00   11.19
   6 -36  -2   15.62   10.20
  -6  36  -2   26.81   11.37
  -6  36  -2   42.03   11.77
   6 -36   2   20.27    8.45
   6  38   2    1.67    6.11
  -6 -38  -2    8.99   11.81
   6  38  -2   -0.20    7.63
   6  38  -2    1.21    8.05
   6 -38  -2   -0.27   10.54
   6 -38  -2    2.25    8.15
  -6  38  -2    4.71   10.47
  -6  38  -2   12.58   10.72
   6 -38   2    0.18    6.75
   6  40   2   20.15    8.43
  -6  40  -2   16.27    9.70
  -6 -40  -2   16.42   12.99
   6  40  -2   26.09    9.10
   6  40  -2   19.53    9.28
   6 -40  -2   25.17   12.33
   6 -40  -2   23.53    9.99
  -6  40  -2   16.49   12.38
   6 -40   2   14.85    7.05
   6  42   2  286.69   57.30
  -6 -42  -2  304.59   58.11
   6  42  -2  295.64   56.88
   6  42  -2  338.37   57.19
   6 -42  -2  330.38   58.58
   6 -42  -2  296.27   57.16
  -6  42  -2  287.75   57.74
  -6  42  -2  329.13   57.97
  -6  44  -2  493.52   75.76
   6  44   2  528.35   97.19
  -6 -44  -2  510.93   97.67
   6  44  -2  527.97   96.79
   6  44  -2  556.18   96.99
   6 -44  -2  590.75   97.74
   6 -44  -2  554.45   97.08
  -6  44  -2  518.22   97.25
   6  46   2 1991.59  336.83
  -6 -46  -2 1891.19  337.11
   6  46  -2 1725.58  336.38
   6  46  -2 2009.93  336.73
   6 -46  -2 2027.34  337.16
   6 -46  -2 2070.25  336.77
  -6  46  -2 1674.29  336.48
  -6  46  -2 1852.53  337.00
   6  48   2   33.09   11.83
  -6 -48  -2   25.10   13.14
   6  48  -2    3.19   12.99
   6  48  -2   24.61   14.21
   6 -48  -2   27.79   14.70
   6 -48  -2   30.47   13.66
  -6  48  -2   16.67   17.62
  -6  48  -2    4.58   16.84
   6  50   2   13.92    9.52
  -6 -50  -2   18.12   11.91
  -6 -50  -2   15.84   10.74
  -6  50  -2   22.16   13.22
   6  50  -2   25.96   15.31
   6  50  -2   22.54   16.00
   6 -50  -2   25.65   15.35
   6 -50  -2   19.70   15.72
  -6  50  -2   28.78   18.26
   6  52   2    2.58   11.30
  -6 -52  -2   -4.50   14.75
  -6 -52  -2   -2.24   12.55
   6  52  -2    1.91   14.54
   6  52  -2   -5.82   15.63
   6 -52  -2    1.85   14.53
   6 -52  -2   -8.80   17.30
  -6  52  -2   10.79   16.94
  -6  52  -2    4.73   16.74
   6  54   2   43.00   16.46
  -6 -54  -2   34.04   18.64
  -6 -54  -2   47.64   16.94
   6  54  -2   49.45   16.23
   6  54  -2   58.85   19.50
   6 -54  -2   50.76   18.61
   6 -54  -2   37.09   21.29
  -6  54  -2   30.04   19.59
  -6  54  -2   42.49   19.06
   8   0   2    0.46    6.20
  -8   0  -2    5.56    5.01
   8   2   2  145.05   21.90
  -8  -2  -2   99.61   21.52
  -8  -2   2   90.14   21.46
   8   2  -2  121.83   21.26
  -8   2  -2   92.40   20.50
   8  -2   2  112.53   20.75
   8   4   2   78.50   17.97
  -8  -4  -2  101.25   18.33
  -8  -4   2  109.47   18.34
   8   4  -2   72.23   17.92
  -8   4  -2  108.79   17.19
   8  -4   2   67.92   17.02
   8   6   2  117.12   23.70
  -8  -6  -2  129.38   23.70
  -8  -6   2  139.18   23.66
   8   6  -2  107.49   23.40
  -8   6  -2  144.13   22.99
   8  -6   2   95.82   22.88
   8   8   2  374.69   53.97
  -8  -8  -2  268.36   53.67
  -8  -8   2  318.93   53.93
   8   8  -2  272.19   53.50
   8  -8  -2  246.91   53.20
  -8   8  -2  325.95   53.56
   8  -8   2  270.96   53.48
   8  10   2 2098.71  336.01
  -8 -10  -2 1943.66  335.86
  -8 -10   2 1982.23  335.93
   8  10  -2 1997.68  335.81
   8 -10  -2 1843.57  335.45
   8 -10  -2 1797.25  335.57
  -8  10  -2 1907.27  335.72
   8 -10   2 1602.64  335.81
   8  12   2 3341.62  580.00
  -8 -12  -2 3256.89  579.96
  -8 -12   2 3285.28  580.12
   8  12  -2 3092.13  579.82
   8 -12  -2 3060.16  579.62
   8 -12  -2 3461.08  579.75
  -8  12  -2 3477.16  579.95
   8 -12   2 3459.65  580.07
   8  14   2  381.30   66.11
  -8 -14  -2  442.80   86.14
  -8 -14   2  442.80   86.23
   8  14  -2  536.96   86.02
   8 -14  -2  517.02   85.69
   8 -14  -2  503.04   85.72
  -8  14  -2  469.08   85.97
   8 -14   2  546.77   86.18
   8  16   2  151.86   26.83
  -8 -16  -2  120.32   26.95
  -8 -16   2  137.42   26.69
   8  16  -2  142.88   26.70
   8 -16  -2  151.49   26.05
  -8  16  -2  130.68   26.41
   8 -16   2  139.21   26.37
   8  18   2  284.78   46.63
  -8 -18  -2  229.52   46.84
  -8 -18   2  241.78   46.59
   8  18  -2  256.15   46.53
   8 -18  -2  264.69   46.15
  -8  18  -2  248.71   46.44
   8 -18   2  246.86   46.49
   8  20   2   30.86    8.25
  -8 -20  -2   22.78   10.21
  -8 -20   2   17.51    8.06
   8  20  -2   26.20    8.27
   8 -20  -2   26.15    6.90
   8 -20  -2   28.32    6.99
  -8  20  -2   18.03    7.67
   8 -20   2   23.11    7.24
   8  22   2 5234.70  869.03
  -8 -22  -2 5247.79  869.11
  -8 -22   2 4832.98  869.01
   8  22  -2 4956.89  868.85
   8 -22  -2 5181.07  868.96
   8 -22  -2 5235.98  868.77
  -8  22  -2 4450.52  868.88
   8 -22   2 4281.58  868.96
   8  24   2  499.05   70.78
  -8 -24  -2  514.04   92.32
  -8 -24   2  488.90   92.05
   8  24  -2  566.39   92.21
   8 -24  -2  578.87   92.07
   8 -24  -2  538.17   91.72
  -8  24  -2  452.25   91.84
  -8  24  -2  511.62   91.94
   8 -24   2  463.50   91.93
   8  26   2   10.04    9.53
  -8 -26  -2   11.70    9.56
  -8 -26   2   20.26   11.39
   8  26  -2    8.38    6.82
   8 -26  -2    7.63    6.91
   8 -26  -2    3.08    6.27
  -8  26  -2    7.38    8.48
  -8  26  -2    1.27    8.10
   8 -26   2    5.46    6.14
   8  28   2   10.87    8.43
  -8 -28  -2   11.31    9.78
  -8 -28   2   -1.32   11.05
   8  28  -2    9.92    7.33
   8 -28  -2    2.80    6.92
   8 -28  -2    6.64    6.49
  -8  28  -2   -3.16    8.82
  -8  28  -2    5.97    8.29
   8 -28   2    5.27    5.85
   8  30   2  236.87   40.23
  -8 -30  -2  300.12   51.15
  -8 -30   2  300.67   51.24
   8  30  -2  251.23   50.28
   8  30  -2  278.85   50.55
   8 -30  -2  262.79   50.36
   8 -30  -2  293.64   50.41
  -8  30  -2  302.76   50.84
  -8  30  -2  249.21   50.62
   8 -30   2  263.52   50.38
   8  32   2   76.15   16.80
  -8 -32  -2   51.14   17.63
  -8 -32   2   83.30   18.01
   8  32  -2   66.80   15.86
   8  32  -2   63.60   15.65
   8 -32  -2   82.30   16.66
   8 -32  -2   84.37   16.36
  -8  32  -2   63.07   16.97
  -8  32  -2   72.30   16.85
   8 -32   2   66.00   15.57
   8  34   2   75.40   16.41
  -8 -34  -2   37.88   17.08
   8  34  -2   74.04   15.21
   8  34  -2   80.35   14.97
   8 -34  -2   86.77   16.69
   8 -34  -2   71.88   15.13
  -8  34  -2   34.43   16.10
  -8  34  -2   51.15   16.12
   8 -34   2   76.91   15.00
  -8 -36  -2  370.38   59.58
   8  36   2  427.70   75.94
   8  36  -2  446.25   75.45
   8  36  -2  413.83   75.59
   8 -36  -2  485.40   76.12
   8 -36  -2  414.10   75.48
  -8  36  -2  370.14   75.79
  -8  36  -2  397.73   75.82
   8  38   2  270.04   51.33
  -8 -38  -2  292.69   52.07
   8  38  -2  243.07   50.79
   8  38  -2  291.45   51.17
   8 -38  -2  319.51   51.83
   8 -38  -2  264.65   51.26
  -8  38  -2  238.92   51.52
  -8  38  -2  291.64   51.57
   8  40   2   20.13    7.82
  -8 -40  -2   20.25   13.15
   8  40  -2   22.59    9.83
   8  40  -2   20.71    9.75
   8 -40  -2   23.10   14.72
   8 -40  -2   18.06    9.77
  -8  40  -2   15.21   12.62
  -8  40  -2   19.66   11.97
   8  42   2  261.82   47.92
  -8 -42  -2  254.61   48.97
   8  42  -2  236.38   47.55
   8  42  -2  263.11   47.73
   8 -42  -2  282.66   48.76
   8 -42  -2  277.63   48.23
  -8  42  -2  230.11   48.26
  -8  42  -2  230.73   48.34
   8  44   2   42.07   13.06
  -8 -44  -2   48.43   16.29
   8  44  -2   46.64   12.90
   8  44  -2   47.37   12.57
   8 -44  -2   32.57   15.35
   8 -44  -2   46.40   15.60
  -8  44  -2   28.30   15.00
  -8  44  -2   34.82   15.00
   8  46   2  279.17   52.55
  -8 -46  -2  279.87   53.73
   8  46  -2  256.39   52.16
   8  46  -2  280.33   52.31
   8 -46  -2  307.53   53.60
   8 -46  -2  298.56   53.36
  -8  46  -2  261.50   52.89
  -8  46  -2  273.51   53.31
   8  48   2  498.95   89.96
  -8 -48  -2  423.48   90.22
   8  48  -2  474.06   89.59
   8  48  -2  463.57   89.65
   8 -48  -2  523.52   91.14
   8 -48  -2  531.02   91.06
  -8  48  -2  522.12   90.63
  -8  48  -2  490.69   91.02
  -8 -50  -2   21.15   12.50
   8  50   2   23.93   13.19
   8  50  -2   60.19   18.21
   8  50  -2   30.75   17.28
   8 -50  -2   28.18   16.57
   8 -50  -2   35.03   17.11
  -8  50  -2   36.39   17.89
  -8  50  -2   42.01   18.81
   8  52   2    3.67    7.42
  -8 -52  -2   11.97   14.79
  -8 -52  -2    4.50   12.74
   8  52  -2   13.85   16.60
   8  52  -2    1.63   15.81
   8 -52  -2   13.80   15.09
   8 -52  -2    7.48   18.01
  -8  52  -2    3.49   16.86
  -8  52  -2    7.03   17.23
   8  54   2  171.87   37.14
  -8 -54  -2  115.27   38.40
  -8 -54  -2  128.45   37.69
   8  54  -2  240.83   39.62
   8  54  -2  230.78   39.40
   8 -54  -2  173.51   39.07
   8 -54  -2  255.77   42.49
  -8  54  -2  146.72   39.44
  -8  54  -2  168.06   40.03
  10   0   2  845.32  137.87
 -10   0  -2  693.42  137.93
  10   2   2  243.45   42.12
 -10  -2  -2  205.42   41.90
 -10  -2   2  202.28   42.07
  10   2  -2  258.12   41.83
 -10   2  -2  227.44   41.25
  10   4   2   78.15   15.05
 -10  -4  -2   66.69   14.43
 -10  -4   2   75.30   15.38
  10   4  -2   76.61   15.07
 -10   4  -2   57.68   13.74
 -10   4  -2   68.48   13.72
  10  -4   2   65.59   13.71
  10   6   2   70.29   12.77
 -10  -6  -2   37.23   12.66
 -10  -6   2   57.77   12.47
  10   6  -2   52.93   12.36
 -10   6  -2   46.92   10.75
  10   8   2   26.13    7.70
 -10  -8  -2    6.03    6.99
 -10  -8   2    0.97    7.19
  10   8  -2   15.49    6.36
 -10   8  -2    2.35    4.12
 -10   8  -2    8.81    4.45
  10  -8   2   12.44    3.73
  10  10   2   57.09   13.54
 -10 -10  -2   60.96   13.11
 -10 -10   2   62.01   12.83
  10  10  -2   49.63   12.25
 -10  10  -2   57.43   11.57
 -10  10  -2   61.63   11.76
  10 -10   2   46.13   11.67
  10  12   2 4509.37  735.61
 -10 -12  -2 4300.67  735.52
 -10 -12   2 4484.77  735.69
  10  12  -2 4460.80  735.46
  10 -12  -2 4296.09  735.15
 -10  12  -2 3516.23  735.40
 -10  12  -2 4082.28  735.45
  10 -12   2 3599.53  735.45
  10  14   2  180.16   30.07
 -10 -14  -2  144.31   30.42
 -10 -14   2  157.19   30.02
  10  14  -2  179.08   29.85
  10 -14  -2  174.88   29.15
 -10  14  -2  121.14   29.42
 -10  14  -2  145.27   29.49
  10 -14   2  159.39   29.53
 -10 -16  -2  111.51   24.96
  10  16   2  186.98   30.74
 -10 -16   2  129.75   30.42
  10  16  -2  192.68   30.58
  10 -16  -2  173.07   29.88
  10 -16  -2  173.79   29.73
 -10  16  -2  139.61   30.13
  10 -16   2  178.30   30.24
  10  18   2   51.43   10.65
 -10 -18  -2   39.31   11.14
 -10 -18   2   18.56    9.61
  10  18  -2   47.03   10.55
  10 -18  -2   42.44    8.90
  10 -18  -2   43.91    8.66
 -10  18  -2   28.91    9.00
 -10  18  -2   31.30    9.18
  10 -18   2   34.45    8.94
  10  20   2  832.70  123.77
 -10 -20  -2  656.30  123.78
 -10 -20   2  631.45  123.64
  10  20  -2  768.04  123.54
  10 -20  -2  772.67  123.45
  10 -20  -2  756.85  123.24
 -10  20  -2  559.59  123.35
 -10  20  -2  509.83  123.27
  10 -20   2  734.67  123.56
  10  22   2  356.95   54.92
 -10 -22  -2  335.89   55.20
 -10 -22   2  269.75   54.71
  10  22  -2  302.22   54.52
  10 -22  -2  309.64   54.37
  10 -22  -2  304.07   54.20
 -10  22  -2  291.89   54.56
 -10  22  -2  269.79   54.40
  10 -22   2  243.60   54.38
  10  24   2 5673.77  848.48
 -10 -24  -2 4754.81  848.49
 -10 -24   2 5687.05  848.51
  10  24  -2 4560.87  848.20
  10 -24  -2 4832.50  848.31
  10 -24  -2 4750.47  848.08
 -10  24  -2 3831.60  848.17
 -10  24  -2 4536.58  848.23
  10 -24   2 4710.24  848.40
  10  26   2  230.45   40.23
 -10 -26  -2  203.66   40.31
 -10 -26   2  241.53   40.70
  10  26  -2  200.93   39.49
  10 -26  -2  181.73   39.25
 -10  26  -2  217.18   39.91
 -10  26  -2  216.61   39.78
  10 -26   2  207.89   39.56
  10  28   2  324.14   52.75
 -10 -28  -2  349.09   67.83
 -10 -28   2  439.37   68.22
  10  28  -2  345.64   67.24
  10 -28  -2  357.80   67.41
  10 -28  -2  350.33   67.32
 -10  28  -2  419.10   67.70
 -10  28  -2  382.07   67.46
  10  30   2  116.28   25.43
 -10 -30  -2  113.98   26.17
 -10 -30   2  154.38   26.97
  10  30  -2  117.59   25.05
  10 -30  -2  133.26   25.30
  10 -30  -2  129.53   24.97
 -10  30  -2  125.73   26.02
 -10  30  -2  121.69   25.40
  10  32   2  951.46  186.19
 -10 -32  -2 1030.28  186.47
 -10 -32   2 1267.07  186.66
  10  32  -2  925.33  185.90
  10  32  -2 1040.51  186.21
  10 -32  -2 1015.48  186.27
  10 -32  -2 1147.68  186.09
 -10  32  -2 1082.89  186.29
 -10  32  -2  973.82  186.15
  10  34   2   25.47   10.21
 -10 -34  -2   13.11   11.74
 -10 -34   2   25.03   12.26
  10  34  -2   14.10    9.04
  10  34  -2   10.38    8.06
  10 -34  -2   23.01   10.72
  10 -34  -2   16.47    9.24
 -10  34  -2   10.16   11.36
 -10  34  -2   14.09   10.04
  10  36   2  704.22  122.74
 -10 -36  -2  679.09  122.97
  10  36  -2  674.39  122.37
  10  36  -2  654.27  122.44
  10 -36  -2  765.22  122.95
  10 -36  -2  737.40  122.61
 -10  36  -2  627.56  122.56
 -10  36  -2  637.13  122.60
  10  38   2    7.90    9.94
 -10 -38  -2    2.53   12.02
  10  38  -2    5.33    8.49
  10  38  -2    7.49    7.20
  10 -38  -2    1.28   13.70
  10 -38  -2   12.57   12.88
 -10  38  -2    7.26   11.22
 -10  38  -2    2.91   10.21
  10  40   2    0.88    7.85
  10  40  -2   11.87    7.33
 -10 -40  -2   18.87   12.74
  10  40  -2    9.29    9.02
  10 -40  -2   15.24   12.13
  10 -40  -2    9.24   13.84
 -10  40  -2    5.30   11.74
 -10  40  -2   16.74   11.12
  10  42   2   82.49   17.16
 -10 -42  -2   70.05   21.68
  10  42  -2   99.39   19.65
  10  42  -2   96.12   19.59
  10 -42  -2   85.10   21.47
  10 -42  -2   87.00   22.84
 -10  42  -2   80.80   20.30
 -10  42  -2   94.89   20.93
  10  44   2  563.65   89.56
 -10 -44  -2  721.14  117.38
  10  44  -2  641.14  116.32
  10  44  -2  624.21  116.40
  10 -44  -2  657.00  117.12
  10 -44  -2  725.62  117.04
 -10  44  -2  513.64  116.15
 -10  44  -2  757.89  117.11
  10  46   2  184.23   32.35
 -10 -46  -2  190.29   38.56
  10  46  -2  196.90   37.55
  10  46  -2  211.44   37.70
  10 -46  -2  183.23   40.23
  10 -46  -2  219.17   39.31
 -10  46  -2  158.44   37.48
 -10  46  -2  203.08   38.83
  10  48   2   26.89   14.92
 -10 -48  -2   20.68   14.09
  10  48  -2   48.94   17.77
  10  48  -2   37.35   14.64
  10 -48  -2   15.36   15.67
  10 -48  -2   34.15   17.50
 -10  48  -2   32.09   17.70
 -10  48  -2   37.82   17.68
  10  50   2   10.13   11.32
 -10 -50  -2   16.60   12.96
  10  50  -2   19.05   17.13
  10  50  -2   16.72   13.41
  10 -50  -2    6.22   14.66
  10 -50  -2   19.73   17.85
 -10  50  -2   16.20   17.25
 -10  50  -2   17.33   17.07
  10  52   2    0.86   10.76
 -10 -52  -2   18.68   13.03
  10  52  -2    7.51   17.01
  10  52  -2    5.88   15.84
  10 -52  -2   10.52   15.15
  10 -52  -2   -4.10   21.97
 -10  52  -2   12.20   17.83
 -10  52  -2   17.50   17.49
  12   0   2    4.47    6.35
 -12   0  -2    0.93    5.73
  12   2   2   35.38   13.21
 -12  -2  -2   63.12   12.48
 -12  -2   2   88.78   13.43
  12   2  -2   47.75   12.68
  12   4   2    4.92    5.03
 -12  -4  -2    1.34    7.56
 -12  -4   2   10.75    8.36
  12   4  -2   19.61    8.19
 -12   4  -2    0.39    2.78
 -12   4  -2    1.85    3.33
  12   6   2  235.99   46.70
 -12  -6  -2  290.38   46.93
 -12  -6   2  299.45   46.97
  12   6  -2  208.81   46.58
 -12   6  -2  241.71   46.11
 -12   6  -2  263.52   46.09
  12   8   2  184.40   29.40
 -12  -8  -2  143.32   29.29
 -12  -8   2  166.12   29.41
  12   8  -2  150.32   28.98
 -12   8  -2  126.73   28.28
 -12   8  -2  151.50   28.46
  12  10   2 4478.90  685.97
 -12 -10  -2 3564.31  685.71
 -12 -10   2 4202.81  685.97
  12  10  -2 4105.56  685.75
 -12  10  -2 3691.95  685.61
 -12  10  -2 3324.63  685.62
 -12 -12  -2  283.71   45.01
  12  12   2  360.98   58.13
 -12 -12   2  299.56   57.77
  12  12  -2  332.74   57.63
 -12  12  -2  315.24   57.41
  12  14   2  298.97   44.14
 -12 -14  -2  210.58   44.26
 -12 -14   2  208.49   44.01
  12  14  -2  264.11   43.89
  12 -14  -2  242.87   43.33
  12 -14  -2  280.30   43.33
 -12  14  -2  191.63   43.46
 -12  14  -2  207.22   43.56
 -12 -16  -2    9.70    6.96
  12  16   2    5.42    6.94
 -12 -16   2    3.02    6.69
  12  16  -2    3.81    6.87
  12 -16  -2    9.58    4.35
  12 -16  -2   10.47    3.92
 -12  16  -2   11.71    5.83
 -12  16  -2   11.49    5.74
  12  18   2  155.78   23.97
 -12 -18  -2  118.41   23.87
 -12 -18   2   95.61   23.51
  12  18  -2  139.90   23.79
  12 -18  -2  118.47   22.82
 -12  18  -2  115.54   23.23
 -12  18  -2   93.65   22.90
  12  20   2  169.49   26.33
 -12 -20  -2  179.44   32.03
 -12 -20   2  153.63   31.34
  12  20  -2  193.13   31.59
  12 -20  -2  151.86   30.87
  12 -20  -2  148.05   30.64
 -12  20  -2  164.17   31.23
 -12  20  -2  161.32   31.24
  12  22   2 4587.13  767.54
 -12 -22  -2 4600.56  767.73
 -12 -22   2 5356.87  767.90
  12  22  -2 4312.93  767.40
  12 -22  -2 4520.67  767.44
  12 -22  -2 4119.76  767.15
 -12  22  -2 3741.39  767.31
 -12  22  -2 3815.70  767.35
  12  24   2  442.27   81.17
 -12 -24  -2  418.31   81.42
 -12 -24   2  532.78   81.55
  12  24  -2  438.93   80.81
  12 -24  -2  517.48   81.11
  12 -24  -2  477.53   80.78
 -12  24  -2  394.77   80.76
 -12  24  -2  387.28   80.82
  12  26   2   59.37   13.98
 -12 -26  -2   51.48   14.27
 -12 -26   2   44.19   13.75
  12  26  -2   43.38   11.86
  12 -26  -2   51.51   12.11
  12 -26  -2   51.53   12.46
 -12  26  -2   55.27   13.50
 -12  26  -2   37.67   12.44
  12  28   2   32.76   11.76
 -12 -28  -2   28.54   12.58
 -12 -28   2   33.29   13.56
  12  28  -2   21.39    9.21
  12 -28  -2   28.87    9.74
  12 -28  -2   25.41   10.49
 -12  28  -2   40.13   11.39
 -12  28  -2   28.25   10.60
  12  30   2  368.40   65.71
 -12 -30  -2  342.74   66.01
 -12 -30   2  441.94   66.43
  12  30  -2  321.02   65.23
  12 -30  -2  343.97   65.73
  12 -30  -2  350.13   65.17
 -12  30  -2  388.79   65.62
 -12  30  -2  311.68   65.40
  12  32   2  103.03   23.51
 -12 -32  -2   87.69   24.43
 -12 -32   2  126.43   24.90
  12  32  -2  106.96   22.93
  12  32  -2  116.92   23.22
  12 -32  -2  120.85   24.22
  12 -32  -2  134.83   23.22
 -12  32  -2  106.10   23.84
 -12  32  -2  118.24   23.62
  12  34  -2  182.91   24.65
  12  34   2  189.80   29.76
 -12 -34  -2  102.82   30.12
 -12 -34   2   97.86   29.13
  12  34  -2  174.61   29.26
  12 -34  -2  189.93   30.06
  12 -34  -2  193.53   29.70
 -12  34  -2  101.27   29.52
 -12  34  -2  103.76   29.37
 -12 -36  -2   -0.28    9.02
  12  36   2   18.30   10.15
 -12 -36   2   15.49   12.54
  12  36  -2   16.57    9.12
  12  36  -2    5.87    7.22
  12 -36  -2   17.17   10.96
  12 -36  -2    7.27   12.77
 -12  36  -2   12.88   10.05
 -12  36  -2   11.64   10.32
  12  38   2  126.83   20.34
 -12 -38  -2   92.21   24.33
  12  38  -2  115.46   22.90
  12  38  -2  111.07   22.42
  12 -38  -2  123.41   25.39
  12 -38  -2  152.44   24.14
 -12  38  -2   60.23   22.34
 -12  38  -2   93.09   23.39
  12  40   2    5.38   10.29
 -12 -40  -2    3.24   12.24
  12  40  -2   12.03    9.37
  12  40  -2    0.14    7.48
  12 -40  -2    1.11   11.96
  12 -40  -2    6.57   12.50
 -12  40  -2    9.39    9.04
 -12  40  -2    3.81   10.56
  12  42   2  131.63   27.57
 -12 -42  -2   97.80   28.73
  12  42  -2  161.42   27.58
  12  42  -2  168.77   27.67
  12 -42  -2  148.72   29.05
  12 -42  -2  160.11   30.95
 -12  42  -2   90.47   27.74
 -12  42  -2  112.56   28.02
 -12 -44  -2   16.70   11.51
 -12  44  -2   26.37   10.72
  12  44   2   20.14   10.73
  12  44  -2   17.59   11.38
  12  44  -2   21.82   10.69
  12 -44  -2   32.30   17.22
  12 -44  -2   31.68   19.44
 -12  44  -2   22.60   11.26
 -12 -46  -2  286.99   50.50
  12  46   2  397.29   63.65
  12  46  -2  340.35   62.57
  12  46  -2  317.93   62.31
  12 -46  -2  344.32   63.77
  12 -46  -2  375.50   64.34
 -12  46  -2  284.56   62.43
 -12  46  -2  346.86   63.18
 -12 -48  -2   38.51   14.15
  12  48   2   38.49   18.34
  12  48  -2   61.51   20.18
  12  48  -2   56.62   16.85
  12 -48  -2   50.64   18.13
  12 -48  -2   41.44   20.52
 -12  48  -2   57.09   20.45
 -12  48  -2   51.21   19.04
  12  50   2   49.08   17.60
 -12 -50  -2   51.58   18.89
  12  50  -2   74.18   22.40
  12  50  -2   85.28   19.25
  12 -50  -2   57.21   20.36
  12 -50  -2   71.92   23.62
 -12  50  -2   67.05   22.64
 -12  50  -2   66.35   21.61
  12  52   2   -1.19    7.85
 -12 -52  -2    5.03   12.77
  12  52  -2    8.91   17.99
  12  52  -2    9.55   13.41
  12 -52  -2    4.94   15.16
  12 -52  -2    3.44   19.28
 -12  52  -2   -0.06   18.34
 -12  52  -2    1.23   17.40
  14   0   2  156.70   15.42
 -14   0  -2    0.81   17.37
  14   2   2   11.86    8.19
 -14  -2  -2   20.96    6.84
 -14  -2   2   20.05    8.10
  14   2  -2    3.36    7.17
  14   4   2  108.51   23.59
 -14  -4  -2  109.55   23.90
 -14  -4   2  144.59   25.18
  14   4  -2  141.21   24.67
 -14   4  -2  117.04   22.60
  14   6   2  145.51   25.14
 -14  -6  -2  103.96   25.24
 -14  -6   2  138.39   25.37
  14   6  -2  157.78   25.31
 -14   6  -2  107.85   23.87
 -14   6  -2  117.45   23.97
  14   8   2   62.97   11.78
 -14  -8  -2   45.62   13.80
 -14  -8   2   62.54   13.61
  14   8  -2   64.25   13.17
 -14   8  -2   45.08   11.28
 -14   8  -2   53.10   11.40
 -14 -10  -2 1386.05  217.85
  14  10   2 1859.78  292.84
 -14 -10   2 1648.75  292.86
  14  10  -2 1605.18  292.55
 -14  10  -2 1771.96  292.56
 -14  10  -2 1717.28  292.50
  14  12   2 2589.21  374.33
 -14 -12  -2 1916.42  373.99
 -14 -12   2 2123.09  374.18
  14  12  -2 2291.47  374.07
 -14  12  -2 2068.47  373.92
 -14  12  -2 1737.72  373.82
  14  14   2   54.40   12.67
 -14 -14  -2   44.77   13.22
 -14 -14   2   59.10   12.78
  14  14  -2   67.15   12.67
  14 -14  -2   45.56   10.99
  14 -14  -2   52.87   10.97
 -14  14  -2   44.06   11.62
 -14  14  -2   57.19   11.74
  14  16   2  114.42   17.24
 -14 -16  -2   67.30   19.35
 -14 -16   2   79.38   19.50
  14  16  -2  132.06   19.56
  14 -16  -2   95.66   18.48
  14 -16  -2  110.10   18.50
 -14  16  -2   77.17   18.86
 -14  16  -2   84.47   18.71
  14  18   2   52.03   14.88
 -14 -18  -2   64.99   13.27
 -14 -18   2   78.87   14.81
  14  18  -2   41.25   13.00
  14 -18  -2   55.35   12.04
  14 -18  -2   49.16   12.00
 -14  18  -2   47.87   11.92
 -14  18  -2   57.50   12.60
  14  20   2  260.71   31.66
 -14 -20  -2  158.99   38.14
 -14 -20   2  212.27   39.16
  14  20  -2  244.96   38.14
  14 -20  -2  215.79   37.83
  14 -20  -2  255.39   37.75
 -14  20  -2  131.48   37.49
 -14  20  -2  159.68   37.88
  14  22   2  313.75   55.12
 -14 -22  -2  291.04   55.23
 -14 -22   2  336.57   55.85
  14  22  -2  316.92   54.78
  14 -22  -2  314.86   54.73
  14 -22  -2  290.36   54.51
 -14  22  -2  256.92   54.40
 -14  22  -2  285.13   54.74
  14  24   2 3480.27  589.30
 -14 -24  -2 3298.71  589.47
 -14 -24   2 3794.10  589.58
  14  24  -2 3756.98  589.27
  14 -24  -2 3094.67  589.18
  14 -24  -2 3542.14  589.10
 -14  24  -2 2963.11  589.01
 -14  24  -2 2800.87  589.10
  14  26   2  429.82   73.64
 -14 -26  -2  386.52   73.89
 -14 -26   2  444.57   73.83
  14  26  -2  367.65   73.11
  14 -26  -2  421.54   73.46
  14 -26  -2  405.06   73.28
 -14  26  -2  354.43   73.09
 -14  26  -2  438.87   73.38
  14  28   2  254.12   41.72
 -14 -28  -2  276.23   53.07
 -14 -28   2  371.42   53.37
  14  28  -2  266.16   52.04
  14 -28  -2  278.16   52.52
  14 -28  -2  262.17   52.10
 -14  28  -2  288.66   52.39
 -14  28  -2  271.93   52.28
  14  30   2  122.19   24.02
 -14 -30  -2  115.46   24.59
 -14 -30   2  116.59   25.17
  14  30  -2  111.42   22.74
  14 -30  -2  117.00   23.74
 -14  30  -2   94.99   22.75
 -14  30  -2  116.49   23.11
  14  32   2  668.89  127.23
 -14 -32  -2  697.75  127.69
 -14 -32   2  902.55  127.99
  14  32  -2  731.74  127.09
  14 -32  -2  721.57  127.45
  14 -32  -2  688.10  127.14
 -14  32  -2  626.34  126.95
 -14  32  -2  660.74  127.13
  14  34   2  533.16   99.53
 -14 -34  -2  491.53  100.03
 -14 -34   2  582.86  100.11
  14  34  -2  588.28   99.47
  14  34  -2  525.54   99.46
  14 -34  -2  597.63   99.88
  14 -34  -2  629.37   99.90
 -14  34  -2  509.06   99.34
 -14  34  -2  517.22   99.52
  14  36   2   63.07   16.35
 -14 -36  -2   76.42   18.39
 -14 -36   2   67.21   18.31
  14  36  -2   60.41   15.36
  14  36  -2   66.90   15.53
  14 -36  -2   64.55   18.73
  14 -36  -2   71.80   17.99
 -14  36  -2   50.72   15.70
 -14  36  -2   68.33   16.73
 -14 -38  -2    2.33    9.23
  14  38   2    6.55   10.09
  14  38  -2   10.92    8.44
  14  38  -2   11.63    7.39
  14 -38  -2    4.65   11.50
  14 -38  -2   18.11   15.80
 -14  38  -2    6.63    9.19
 -14  38  -2    4.36    7.62
  14  40   2   53.06   15.33
 -14 -40  -2   63.74   17.38
  14  40  -2   46.82   14.30
  14  40  -2   48.05   13.47
  14 -40  -2   41.89   18.62
  14 -40  -2   59.00   17.89
 -14  40  -2   53.01   14.71
 -14  40  -2   59.09   15.72
  14  42   2    9.69   10.62
 -14 -42  -2    8.29   13.53
  14  42  -2    9.98    9.43
  14  42  -2   11.27    8.02
  14 -42  -2    1.52   12.59
  14 -42  -2    6.36   14.69
 -14  42  -2   12.84   10.28
 -14  42  -2    3.21   11.25
  14  44   2 1358.61  258.30
 -14 -44  -2 1393.40  258.90
  14  44  -2 1541.96  258.44
  14  44  -2 1366.08  258.34
  14 -44  -2 1490.45  258.94
  14 -44  -2 1633.12  259.14
 -14  44  -2 1337.74  258.37
 -14  44  -2 1521.05  258.62
  14  46  -2  601.43   79.77
  14  46   2  627.65  103.16
 -14 -46  -2  498.63  103.01
  14  46  -2  670.43  103.02
  14 -46  -2  544.86  103.41
  14 -46  -2  615.27  103.90
 -14  46  -2  400.21  102.33
 -14  46  -2  545.87  102.93
  14  48   2  137.25   28.91
 -14 -48  -2   92.10   27.65
  14  48  -2  161.81   30.47
  14  48  -2  122.76   27.93
  14 -48  -2  128.65   30.59
 -14  48  -2  115.61   30.63
 -14  48  -2  119.22   29.33
  14  50  -2   29.62   14.33
  14  50   2   16.48   15.97
 -14 -50  -2   11.94   13.75
  14  50  -2   15.83   13.59
  14 -50  -2   14.45   19.39
  14 -50  -2   12.30   22.77
 -14  50  -2   32.11   18.80
 -14  50  -2   19.69   17.19
  14  52   2   18.94   12.96
 -14 -52  -2   34.14   15.64
  14  52  -2   32.84   20.22
  14  52  -2   25.38   15.10
  14 -52  -2   20.64   22.66
  14 -52  -2   31.57   24.78
 -14  52  -2   28.41   19.93
 -14  52  -2   35.09   19.89
  16   0   2   -1.81    4.89
 -16   0  -2    4.98    6.96
  16   2   2  851.09  145.11
 -16  -2  -2  700.83  145.15
 -16  -2   2  853.49  145.39
  16   2  -2  845.90  145.01
  16   4   2   -0.29    7.50
 -16  -4  -2    1.34    7.24
 -16  -4   2    8.43    8.22
  16   4  -2    5.88    7.87
 -16   4  -2    6.63    3.03
  16   6   2  489.18   81.61
 -16  -6  -2  410.64   81.52
 -16  -6   2  490.97   81.82
  16   6  -2  509.41   81.52
 -16   6  -2  457.56   80.89
 -16   6  -2  359.80   80.91
 -16  -8  -2   31.44   10.35
  16   8  -2   60.18    9.99
  16   8   2   62.80   11.94
 -16  -8   2   27.21   11.54
 -16   8  -2   26.55    8.85
 -16   8  -2   31.43    9.09
 -16 -10  -2 3929.91  624.42
 -16 -10   2 3808.21  624.60
  16  10  -2 3591.57  624.21
 -16  10  -2 3013.02  624.08
 -16  10  -2 3343.68  624.15
  16  12   2 2779.95  421.85
 -16 -12  -2 2140.15  421.54
 -16 -12   2 2341.67  421.75
  16  12  -2 2668.15  421.64
 -16  12  -2 2077.98  421.38
 -16  12  -2 2324.37  421.47
  16  14   2  205.15   28.44
 -16 -14  -2  116.68   27.85
 -16 -14   2  133.75   27.78
  16  14  -2  161.67   27.57
 -16  14  -2  100.74   26.90
  16  16   2   98.13   20.72
 -16 -16  -2   81.65   20.27
 -16 -16   2  105.60   20.91
  16  16  -2  105.10   20.09
 -16  16  -2   93.01   19.23
 -16  16  -2  102.51   19.42
  16  18   2   37.75   11.64
 -16 -18  -2   26.80    9.57
 -16 -18   2   29.09   11.65
  16  18  -2   28.63   10.21
  16 -18  -2   36.78    8.80
 -16  18  -2   26.97    7.81
 -16  18  -2   21.44    8.70
  16  20   2  255.81   40.30
 -16 -20  -2  163.60   39.23
 -16 -20   2  262.16   40.33
  16  20  -2  217.86   39.35
  16 -20  -2  194.98   39.01
  16 -20  -2  219.39   38.86
 -16  20  -2  141.23   38.77
 -16  20  -2  232.15   39.21
  16  22   2  983.56  148.52
 -16 -22  -2  733.12  148.13
 -16 -22   2  939.10  148.69
  16  22  -2  877.22  148.15
  16 -22  -2  871.66  148.00
  16 -22  -2  818.66  147.82
 -16  22  -2  767.18  148.03
 -16  22  -2  674.17  147.89
  16  24   2 2118.56  304.47
 -16 -24  -2 1708.45  304.41
 -16 -24   2 1480.12  304.47
  16  24  -2 1802.25  304.28
  16 -24  -2 1609.46  304.13
  16 -24  -2 1860.40  304.03
 -16  24  -2 1504.87  304.10
 -16  24  -2 1607.81  304.15
 -16 -26  -2   47.79   12.58
  16  26  -2   51.78   11.21
  16  26   2   51.20   13.91
 -16 -26   2   62.83   15.08
  16 -26  -2   57.20   13.56
 -16  26  -2   46.92   12.82
 -16  26  -2   42.03   12.81
  16  28   2   50.03   12.58
 -16 -28  -2   30.21   13.15
 -16 -28   2   29.34   12.72
  16  28  -2   35.05   10.26
  16 -28  -2   35.77   12.14
 -16  28  -2   34.21   10.80
 -16  28  -2   29.82   10.67
  16  30   2  106.32   21.10
 -16 -30  -2  155.74   25.99
 -16 -30   2  135.94   26.42
  16  30  -2  111.41   23.96
  16 -30  -2  108.48   24.79
  16 -30  -2  106.61   24.41
 -16  30  -2  105.35   24.33
 -16  30  -2  139.02   24.52
  16  32   2   13.42   10.94
 -16 -32  -2   21.41   12.02
 -16 -32   2   10.56   13.89
  16  32  -2   10.26    7.90
  16 -32  -2    2.75   10.42
  16 -32  -2    2.21   11.91
 -16  32  -2   19.62    9.04
 -16  32  -2   16.57    9.06
  16  34   2  384.43   73.43
 -16 -34  -2  372.90   74.08
 -16 -34   2  386.42   74.12
  16  34  -2  424.66   73.22
  16 -34  -2  500.90   74.23
  16 -34  -2  487.36   73.75
 -16  34  -2  296.79   73.18
 -16  34  -2  370.38   73.31
  16  36   2  597.75  109.90
 -16 -36  -2  615.06  110.57
 -16 -36   2  666.32  110.50
  16  36  -2  598.80  109.70
  16  36  -2  592.50  109.79
  16 -36  -2  588.12  110.70
  16 -36  -2  710.70  110.26
 -16  36  -2  543.17  109.86
 -16  36  -2  581.77  109.88
  16  38   2   35.21   11.59
 -16 -38  -2    7.00   13.82
 -16 -38   2   12.04   14.03
  16  38  -2   35.64   10.29
  16  38  -2   33.30    9.73
  16 -38  -2   41.87   16.25
  16 -38  -2   28.63   14.04
 -16  38  -2    7.54   10.84
 -16  38  -2   12.60   11.38
  16  40   2   26.89   10.70
  16  40  -2   22.73    9.19
 -16 -40  -2   38.04   15.27
  16  40  -2   28.60   11.20
  16 -40  -2   20.56   14.09
  16 -40  -2   32.56   17.88
 -16  40  -2   41.56   12.60
 -16  40  -2   46.17   13.46
  16  42   2  199.32   34.60
 -16 -42  -2  155.20   35.79
  16  42  -2  186.13   33.95
  16  42  -2  149.53   33.52
  16 -42  -2  185.53   35.61
  16 -42  -2  181.72   35.95
 -16  42  -2  158.09   35.06
 -16  42  -2  161.81   34.67
  16  44  -2   91.97   18.21
  16  44   2   84.01   22.09
 -16 -44  -2   89.27   22.47
  16  44  -2  100.81   20.65
  16 -44  -2   77.74   23.25
  16 -44  -2  106.54   24.42
 -16  44  -2   88.45   21.44
 -16  44  -2   94.73   22.15
  16  46   2  630.68  113.83
 -16 -46  -2  574.78  114.06
  16  46  -2  697.79  114.55
  16  46  -2  659.01  113.93
  16 -46  -2  513.47  114.54
  16 -46  -2  571.60  114.38
 -16  46  -2  743.08  114.68
 -16  46  -2  599.07  114.43
  16  48   2  441.06   81.12
 -16 -48  -2  432.77   81.37
  16  48  -2  548.93   82.30
  16  48  -2  472.91   81.01
  16 -48  -2  354.35   82.15
  16 -48  -2  351.14   82.69
 -16  48  -2  464.28   82.02
 -16  48  -2  417.12   81.99
  16  50   2  134.78   29.40
 -16 -50  -2  133.89   29.10
  16  50  -2  152.92   31.64
  16  50  -2  143.04   28.81
  16 -50  -2  110.10   32.25
  16 -50  -2  119.28   31.79
 -16  50  -2  106.07   31.07
 -16  50  -2  119.22   31.68
  18   0   2 4082.19  707.85
 -18   0  -2 3940.97  708.05
  18   2   2  441.99   77.79
 -18  -2  -2  386.49   77.86
 -18  -2   2  443.13   78.12
  18   2  -2  448.70   77.63
  18   4   2   29.15    9.02
 -18  -4  -2   16.57    7.86
 -18  -4   2   20.57    9.49
  18   4  -2   20.08    8.97
 -18   4  -2   17.80    5.20
 -18   4  -2    9.09    4.81
  18   6   2   84.07   18.79
 -18  -6  -2   87.83   19.26
 -18  -6   2  103.33   19.13
  18   6  -2   86.10   18.97
 -18   6  -2   98.47   17.37
 -18   6  -2   81.76   17.30
  18   8   2  410.54   65.46
 -18  -8  -2  359.61   65.41
 -18  -8   2  403.19   65.60
  18   8  -2  368.89   65.10
 -18   8  -2  335.15   64.57
 -18   8  -2  279.69   64.60
  18  10   2  900.96  136.40
 -18 -10  -2  897.22  181.29
 -18 -10   2 1367.19  181.95
  18  10  -2 1104.80  181.18
 -18  10  -2 1033.13  180.98
 -18  10  -2  842.12  180.97
  18  12   2  538.27   87.60
 -18 -12  -2  442.85   87.35
 -18 -12   2  582.25   88.08
  18  12  -2  484.29   87.31
 -18  12  -2  441.99   87.00
 -18  12  -2  433.53   87.04
 -18 -14  -2  147.17   26.83
  18  14   2  205.35   33.65
 -18 -14   2  174.98   33.69
  18  14  -2  179.64   33.27
 -18  14  -2  188.03   32.59
 -18  14  -2  156.43   32.56
  18  16   2  119.32   16.83
 -18 -16  -2   67.23   19.08
 -18 -16   2   82.47   19.55
  18  16  -2  115.71   19.23
  18 -16  -2   88.07   17.55
  18 -16  -2   85.95   17.34
 -18  16  -2   73.44   17.66
 -18  16  -2   81.03   18.02
 -18 -18  -2  108.47   21.92
  18  18   2  180.41   26.97
 -18 -18   2  171.40   27.31
  18  18  -2  137.32   26.26
  18 -18  -2  111.28   25.32
  18 -18  -2  124.15   25.33
 -18  18  -2   99.87   25.25
 -18  18  -2  133.96   25.73
  18  20   2  141.29   21.30
 -18 -20  -2   52.68   19.31
 -18 -20   2   75.43   20.64
  18  20  -2  124.41   19.98
  18 -20  -2   89.10   18.51
  18 -20  -2  106.34   19.26
 -18  20  -2   58.74   18.55
  18  22   2 1141.98  147.68
 -18 -22  -2  886.01  195.64
 -18 -22   2 1274.47  196.31
  18  22  -2 1274.23  195.86
  18 -22  -2  989.58  195.44
  18 -22  -2 1124.41  195.47
 -18  22  -2 1018.28  195.56
 -18  22  -2 1114.61  195.71
  18  24   2  208.88   34.52
 -18 -24  -2  218.41   42.89
 -18 -24   2  329.15   44.35
  18  24  -2  227.22   42.65
  18 -24  -2  191.12   42.31
  18 -24  -2  200.72   42.48
 -18  24  -2  212.83   42.33
 -18  24  -2  251.24   42.56
  18  26   2   87.19   15.60
 -18 -26  -2   59.21   17.83
 -18 -26   2   68.36   19.08
  18  26  -2   89.73   17.32
  18 -26  -2   92.02   17.24
  18 -26  -2  108.41   17.95
 -18  26  -2   73.19   17.92
 -18  26  -2   53.48   17.06
  18  28   2  186.94   34.81
 -18 -28  -2  157.54   35.02
 -18 -28   2  218.65   35.40
  18  28  -2  184.13   34.32
  18 -28  -2  174.77   34.39
  18 -28  -2  177.79   34.81
 -18  28  -2  168.66   34.35
 -18  28  -2  167.47   34.39
  18  30   2  141.24   25.66
 -18 -30  -2  109.93   25.95
 -18 -30   2  114.66   26.70
  18  30  -2  127.72   24.51
  18 -30  -2  108.87   25.00
  18 -30  -2  136.19   25.01
 -18  30  -2  112.52   24.73
 -18  30  -2  123.46   24.81
  18  32   2  722.15  131.66
 -18 -32  -2  729.17  132.02
 -18 -32   2  872.59  132.17
  18  32  -2  754.07  131.35
  18 -32  -2  596.36  131.27
  18 -32  -2  703.85  131.44
 -18  32  -2  758.97  131.54
 -18  32  -2  719.40  131.49
  18  34   2  126.63   26.58
 -18 -34  -2  121.02   27.53
 -18 -34   2  170.16   28.74
  18  34  -2  120.23   25.58
  18 -34  -2  146.21   28.67
  18 -34  -2  117.23   27.83
 -18  34  -2  119.10   26.07
 -18  34  -2  104.37   26.01
  18  36   2  957.84  135.76
 -18 -36  -2 1023.54  180.24
 -18 -36   2 1087.56  180.10
  18  36  -2 1047.33  179.49
  18  36  -2 1033.47  179.59
  18 -36  -2 1013.75  180.02
  18 -36  -2 1034.64  179.83
 -18  36  -2  897.70  179.55
 -18  36  -2  974.87  179.79
 -18 -38  -2   99.25   21.09
  18  38   2   97.63   22.83
 -18 -38   2  109.09   24.73
  18  38  -2  106.32   22.20
  18  38  -2  108.68   22.33
  18 -38  -2  117.38   25.12
  18 -38  -2  113.48   24.44
 -18  38  -2   96.52   22.79
 -18  38  -2   97.27   22.81
  18  40   2   99.30   23.47
 -18 -40  -2  128.63   25.51
 -18 -40   2  117.90   25.23
  18  40  -2  106.72   22.81
  18  40  -2   89.47   22.17
  18 -40  -2   94.33   27.53
  18 -40  -2  102.71   25.44
 -18  40  -2  131.92   25.89
 -18  40  -2  103.53   24.41
  18  42  -2   29.14    9.21
  18  42   2   28.33   12.52
 -18 -42  -2   16.80   14.96
  18  42  -2   32.69   11.12
  18 -42  -2   33.17   18.79
  18 -42  -2   25.58   16.26
 -18  42  -2   25.24   16.19
 -18  42  -2   27.17   14.66
  18  44   2 1572.84  227.37
 -18 -44  -2 1597.74  303.90
  18  44  -2 1933.88  303.83
  18  44  -2 1769.91  303.52
  18 -44  -2 1422.91  303.89
  18 -44  -2 1574.19  304.08
 -18  44  -2 1941.95  303.95
 -18  44  -2 1774.61  303.77
  18  46   2  649.74  124.09
 -18 -46  -2  595.93  124.47
  18  46  -2  790.28  124.83
  18  46  -2  778.73  124.46
  18 -46  -2  504.58  124.89
  18 -46  -2  642.24  124.96
 -18  46  -2  751.85  124.95
 -18  46  -2  722.03  124.97
  18  48   2   70.51   20.59
 -18 -48  -2   64.46   20.32
  18  48  -2   87.26   23.41
  18  48  -2   72.80   20.35
  18 -48  -2   72.21   23.95
 -18  48  -2   55.67   23.23
 -18  48  -2   70.89   23.74
  18  50   2    6.51   15.58
 -18 -50  -2    5.55   14.51
  18  50  -2   18.40   18.76
  18  50  -2   12.53   14.26
  18 -50  -2   19.94   20.76
  18 -50  -2   15.78   19.39
 -18  50  -2   17.96   18.94
 -18  50  -2   11.75   19.08
  20   0   2    6.88    7.73
 -20   0  -2   10.77    8.12
  20   2   2 2959.98  509.58
 -20  -2  -2 2754.19  509.81
 -20  -2   2 3066.85  510.03
  20   2  -2 2806.74  509.50
  20   4   2  173.73   23.32
 -20  -4   2  128.62   23.87
 -20  -4  -2  138.08   28.43
  20   4  -2  166.97   28.19
 -20   4  -2  141.86   26.93
 -20   4  -2  109.31   26.92
  20   6   2  367.57   55.43
 -20  -6  -2  261.96   55.16
 -20  -6   2  313.46   55.56
  20   6  -2  304.89   55.14
 -20   6  -2  327.12   54.54
 -20   6  -2  233.61   54.43
  20   8   2  115.08   15.81
 -20  -8  -2   41.71   14.75
 -20  -8   2   31.15   15.66
  20   8  -2   89.83   14.62
 -20   8  -2   26.87   12.77
  20  10   2 1346.23  205.37
 -20 -10  -2 1046.55  205.19
 -20 -10   2 1414.70  205.78
  20  10  -2 1081.33  204.94
 -20  10  -2  927.55  204.85
 -20 -12  -2  570.56  117.60
 -20 -12   2  708.07  118.16
  20  12  -2  749.94  117.54
 -20  12  -2  584.84  117.28
  20  14   2   73.84   15.10
 -20 -14  -2   48.65   14.21
 -20 -14   2   54.32   15.03
  20  14  -2   76.71   14.47
 -20  14  -2   39.56   12.46
  20  16   2  111.23   18.41
 -20 -16  -2   86.48   17.81
 -20 -16   2  103.86   21.80
  20  16  -2  123.30   21.38
  20 -16  -2   85.85   19.72
 -20  16  -2  109.14   20.26
 -20  16  -2   91.56   20.26
  20  18   2   88.51   17.53
 -20 -18  -2   63.96   16.99
 -20 -18   2   91.14   18.07
  20  18  -2   85.24   16.89
  20 -18  -2   62.32   14.89
 -20  18  -2   63.19   15.22
 -20  18  -2   62.39   15.26
  20  20   2   56.13   15.83
 -20 -20  -2   70.58   15.19
 -20 -20   2   61.69   16.00
  20  20  -2   50.33   14.61
  20 -20  -2   36.39   13.03
 -20  20  -2   70.02   13.16
 -20  20  -2   69.67   13.73
  20  22   2   31.44   14.07
 -20 -22  -2   60.61   12.64
 -20 -22   2   57.57   14.96
  20  22  -2   28.96   12.29
  20 -22  -2   20.24   10.31
  20 -22  -2   26.05   10.86
 -20  22  -2   49.93   10.52
 -20  22  -2   51.03   10.66
  20  24   2  219.88   36.46
 -20 -24  -2  136.91   35.40
 -20 -24   2  230.72   37.01
  20  24  -2  214.73   35.60
  20 -24  -2  190.87   35.34
 -20  24  -2  155.06   34.90
 -20  24  -2  155.51   35.06
  20  26   2   28.56   11.08
 -20 -26  -2   23.26   10.64
 -20 -26   2   19.43   12.72
  20  26  -2   30.79    9.82
  20 -26  -2   16.74    9.62
  20 -26  -2   32.49   11.57
 -20  26  -2   35.97    9.12
 -20  26  -2   27.47    9.70
 -20 -28  -2   18.05    9.09
  20  28   2   29.35   11.05
 -20 -28   2   17.79   12.30
  20  28  -2   22.13    9.65
  20 -28  -2   19.93   10.11
  20 -28  -2   35.67   12.35
 -20  28  -2   29.61   10.52
 -20  28  -2   27.87   11.35
  20  30   2    0.53   10.41
 -20 -30  -2    3.50    9.67
 -20 -30   2   10.83   12.12
  20  30  -2    2.00    7.89
  20 -30  -2    2.49    8.77
  20 -30  -2   10.07   11.60
 -20  30  -2   -2.70   11.35
 -20  30  -2    4.59    9.74
  20  32   2  321.65   58.53
 -20 -32  -2  288.99   58.65
 -20 -32   2  364.27   59.34
  20  32  -2  298.77   57.97
  20 -32  -2  225.42   57.74
  20 -32  -2  296.04   58.20
 -20  32  -2  370.33   58.87
 -20  32  -2  345.49   58.58
  20  34   2 3196.49  505.47
 -20 -34  -2 2355.53  505.44
 -20 -34   2 3048.84  505.62
  20  34  -2 2898.68  505.24
  20 -34  -2 2514.88  505.22
  20 -34  -2 2743.28  505.26
 -20  34  -2 3141.87  505.50
 -20  34  -2 2884.29  505.39
  20  36   2  532.02  108.26
 -20 -36  -2  598.54  109.02
 -20 -36   2  642.33  109.15
  20  36  -2  563.76  108.12
  20 -36  -2  514.41  109.04
  20 -36  -2  570.67  108.96
 -20  36  -2  716.07  108.98
 -20  36  -2  666.50  108.73
  20  38   2    6.33   11.15
 -20 -38  -2   19.99   13.66
 -20 -38   2   19.67   14.56
  20  38  -2   22.36    9.67
  20  38  -2   21.61    9.90
  20 -38  -2   10.05   17.73
  20 -38  -2   24.10   13.78
 -20  38  -2   28.25   14.46
 -20  38  -2   19.60   12.55
 -20 -40  -2   84.85   19.22
  20  40   2   81.01   20.15
 -20 -40   2   90.97   22.38
  20  40  -2   87.42   19.31
  20  40  -2   77.51   19.08
  20 -40  -2   92.95   25.75
  20 -40  -2   85.76   22.47
 -20  40  -2   87.53   22.39
 -20  40  -2   94.04   21.40
  20  42   2  181.43   40.45
 -20 -42  -2  199.52   41.08
  20  42  -2  216.21   41.79
  20  42  -2  212.17   40.03
  20 -42  -2  172.92   43.29
  20 -42  -2  185.67   43.07
 -20  42  -2  237.38   41.45
 -20  42  -2  232.64   40.97
  20  44   2   23.45   13.94
 -20 -44  -2   18.02   14.16
  20  44  -2   34.78   17.68
  20  44  -2   24.83   12.56
  20 -44  -2   16.52   19.82
  20 -44  -2   21.41   17.33
 -20  44  -2   24.94   15.67
 -20  44  -2   21.22   15.38
  20  46   2  456.22   69.63
 -20 -46  -2  468.01   89.76
  20  46  -2  614.41   90.26
  20  46  -2  517.29   89.37
  20 -46  -2  360.11   90.39
  20 -46  -2  479.79   90.55
 -20  46  -2  543.96   90.50
 -20  46  -2  414.02   90.14
 -20 -48  -2   11.22   11.70
  20  48   2   13.20   15.12
  20  48  -2   22.42   18.91
  20  48  -2   29.44   14.99
  20 -48  -2    7.06   20.48
  20 -48  -2   18.09   19.26
 -20  48  -2   23.62   19.21
 -20  48  -2   29.95   19.44
  22   0   2 8294.42 1383.35
 -22   0  -2 7298.66 1383.57
  22   2   2 1652.33  282.96
 -22  -2  -2 1461.58  283.15
 -22  -2   2 1693.33  283.50
  22   2  -2 1595.85  282.91
  22   4  -2   39.72    9.61
  22   4   2   40.78   11.60
 -22  -4  -2   36.46   11.95
 -22  -4   2   25.66   12.06
 -22   4  -2   41.33    8.68
  22   6   2  284.94   45.24
 -22  -6  -2  251.29   45.18
 -22  -6   2  237.52   45.47
  22   6  -2  253.73   45.00
 -22   6  -2  250.22   44.33
 -22   6  -2  166.07   44.19
  22   8   2  159.94   29.93
 -22  -8  -2  137.26   29.56
 -22  -8   2  159.48   30.36
  22   8  -2  163.26   29.48
 -22   8  -2  172.63   28.92
 -22   8  -2  120.86   28.59
  22  10   2   86.63   17.07
 -22 -10  -2   55.33   16.24
 -22 -10   2   72.40   18.71
  22  10  -2   78.77   15.86
 -22  10  -2   77.31   15.10
 -22  10  -2   56.19   14.74
  22  12   2  310.30   48.20
 -22 -12  -2  224.94   47.92
 -22 -12   2  262.89   48.85
  22  12  -2  289.75   47.66
 -22  12  -2  233.13   47.56
 -22  12  -2  215.35   47.33
 -22 -14  -2   56.24   12.24
  22  14   2   49.32   14.45
 -22 -14   2   64.28   14.83
  22  14  -2   44.28   13.66
 -22  14  -2   64.06   13.66
  22  16   2   53.90   14.64
 -22 -16  -2   53.96   13.94
 -22 -16   2   65.55   14.91
  22  16  -2   52.07   14.01
  22 -16  -2   39.35   11.15
 -22  16  -2   71.17   13.61
 -22  16  -2   43.20   12.22
  22  18   2  201.25   36.22
 -22 -18  -2  156.47   35.79
 -22 -18   2  216.08   36.71
  22  18  -2  196.19   35.92
 -22  18  -2  181.48   35.53
 -22  18  -2  180.33   35.54
  22  20   2  251.35   45.79
 -22 -20  -2  207.99   45.49
 -22 -20   2  309.33   46.38
  22  20  -2  215.14   45.35
  22 -20  -2  155.67   44.35
 -22  20  -2  323.27   45.56
 -22  20  -2  268.70   45.13
  22  22   2  265.23   44.98
 -22 -22  -2  211.60   44.40
 -22 -22   2  250.21   45.25
  22  22  -2  278.62   44.30
  22 -22  -2  207.75   43.43
 -22  22  -2  229.04   43.86
 -22  22  -2  206.95   43.80
  22  24   2  196.86   30.44
 -22 -24  -2  114.72   29.49
 -22 -24   2  133.93   30.67
  22  24  -2  172.46   29.42
  22 -24  -2  133.56   28.68
 -22  24  -2  150.59   30.13
 -22  24  -2  126.84   28.97
 -22 -26  -2  133.85   27.32
  22  26   2  200.32   33.49
 -22 -26   2  167.22   34.43
  22  26  -2  198.56   33.54
  22 -26  -2  149.76   32.71
  22 -26  -2  166.10   33.04
 -22  26  -2  179.09   33.48
 -22  26  -2  164.94   33.09
  22  28   2   73.85   16.04
 -22 -28  -2   47.73   15.71
 -22 -28   2   56.14   17.11
  22  28  -2   68.77   15.01
  22 -28  -2   57.25   15.49
  22 -28  -2   68.29   16.36
 -22  28  -2   70.13   16.65
 -22  28  -2   55.35   15.80
  22  30   2   21.97    8.41
 -22 -30  -2    8.48   10.13
 -22 -30   2    5.77   11.51
  22  30  -2   24.83    9.12
  22 -30  -2   28.39   10.49
  22 -30  -2   13.62   12.74
 -22  30  -2    4.84   11.68
 -22  30  -2    7.50   10.62
  22  32   2  992.05  162.91
 -22 -32  -2  794.93  162.80
 -22 -32   2 1013.70  163.22
  22  32  -2 1040.71  162.90
  22 -32  -2  668.77  162.43
  22 -32  -2  957.25  162.83
 -22  32  -2 1001.04  163.03
 -22  32  -2  805.10  162.74
  22  34   2   90.82   20.68
 -22 -34  -2   63.60   20.21
 -22 -34   2   99.50   22.96
  22  34  -2   99.25   19.47
  22 -34  -2   79.38   22.47
  22 -34  -2   83.40   20.79
 -22  34  -2   98.33   21.41
 -22  34  -2   75.07   20.49
  22  36   2 1366.80  257.71
 -22 -36  -2 1297.46  257.98
 -22 -36   2 1713.02  258.44
  22  36  -2 1579.75  257.83
  22 -36  -2 1213.11  257.92
  22 -36  -2 1282.86  257.80
 -22  36  -2 1754.22  258.43
 -22  36  -2 1380.93  257.87
  22  38   2  151.76   24.63
 -22 -38  -2  123.89   25.32
  22  38  -2  147.89   24.37
 -22 -38   2  133.66   30.78
  22  38  -2  140.90   28.63
  22 -38  -2  133.16   32.27
  22 -38  -2  134.34   29.62
 -22  38  -2  165.83   30.66
 -22  38  -2  141.71   29.93
  22  40   2   29.00   14.84
 -22 -40  -2   28.19   14.64
 -22 -40   2   24.92   15.56
  22  40  -2   34.92   11.27
  22  40  -2   25.83   10.74
  22 -40  -2   18.74   19.82
  22 -40  -2   21.09   16.16
 -22  40  -2   35.11   15.41
 -22  40  -2   25.54   14.15
 -22 -42  -2   41.59   14.93
  22  42   2   71.69   18.03
 -22 -42   2   45.37   19.34
  22  42  -2   71.90   16.69
  22  42  -2   63.56   15.96
  22 -42  -2   69.39   24.09
  22 -42  -2   38.55   17.81
 -22  42  -2   47.84   18.62
 -22  42  -2   52.02   17.60
  22  44  -2  702.22   94.45
  22  44   2  682.65  122.89
 -22 -44  -2  533.12  123.01
  22  44  -2  817.59  123.61
  22 -44  -2  556.31  124.25
  22 -44  -2  600.59  123.33
 -22  44  -2  783.47  123.90
 -22  44  -2  696.71  123.48
  22  46   2   30.24   11.78
 -22 -46  -2   11.86   14.25
  22  46  -2   24.70   18.04
  22  46  -2   34.07   13.28
  22 -46  -2   30.55   22.27
  22 -46  -2   24.52   16.61
 -22  46  -2   19.10   18.98
 -22  46  -2   16.07   18.27
  22  48   2    8.80   13.96
 -22 -48  -2    6.97   13.71
  22  48  -2   -0.18   17.76
  22  48  -2    4.84   14.32
  22 -48  -2    8.41   13.97
 -22  48  -2    9.07   19.20
 -22  48  -2   13.26   19.42
  24   0   2   -2.89    8.35
 -24   0  -2   -4.96    8.86
  24   2   2 2060.91  334.56
 -24  -2  -2 1711.59  334.71
 -24  -2   2 2142.37  335.15
  24   2  -2 2081.55  334.57
 -24   2  -2 2013.49  334.10
 -24   2  -2 1232.37  334.14
  24   4   2  156.42   26.44
 -24  -4  -2  142.04   26.59
 -24  -4   2  122.74   26.75
  24   4  -2  143.49   26.09
 -24   4  -2   85.01   24.84
  24   6   2   61.41   13.54
 -24  -6  -2   32.74   13.51
 -24  -6   2   46.64   14.26
  24   6  -2   65.04   13.55
 -24   6  -2   53.26   11.26
 -24   6  -2   29.66   10.80
  24   8   2    2.34    9.39
 -24  -8  -2    0.06    8.47
 -24  -8   2    0.61   10.10
  24   8  -2    7.79    9.18
 -24   8  -2    1.65    5.40
 -24   8  -2    3.61    4.53
  24  10  -2   96.98   13.50
  24  10   2  117.23   16.89
 -24 -10  -2   35.94   15.61
 -24 -10   2   46.32   18.35
 -24  10  -2   47.74   14.58
 -24  10  -2   39.92   14.30
  24  12   2 1225.82  190.73
 -24 -12  -2  933.78  190.49
 -24 -12   2 1143.10  191.01
  24  12  -2 1093.79  190.31
 -24  12  -2 1156.63  190.36
 -24  12  -2  856.85  190.26
  24  14   2  395.01   70.30
 -24 -14  -2  358.77   70.21
 -24 -14   2  387.18   70.53
  24  14  -2  345.16   69.83
 -24  14  -2  478.79   70.07
 -24  14  -2  360.93   69.80
 -24 -16  -2   36.95   10.08
 -24 -16   2   34.38   10.70
  24  16   2   38.66   12.14
  24  16  -2   34.40   11.43
  24 -16  -2   21.89    8.60
 -24  16  -2   38.33   10.78
 -24  16  -2   30.54   10.10
  24  18   2   43.59   13.22
 -24 -18  -2   41.10   12.31
 -24 -18   2   47.45   14.11
  24  18  -2   39.02   12.54
  24 -18  -2   26.01    9.37
 -24  18  -2   42.84   11.69
 -24  18  -2   34.81   11.18
  24  20   2   21.00   12.09
 -24 -20  -2   38.64   11.39
 -24 -20   2   42.46   13.04
  24  20  -2   36.01   11.55
  24 -20  -2    9.72    8.80
  24 -20  -2   18.53    9.40
  24  22   2  629.09   86.28
 -24 -22  -2  432.89   85.58
 -24 -22   2  494.34   86.33
  24  22  -2  538.74   85.66
  24 -22  -2  371.24   85.05
  24 -22  -2  369.65   84.68
 -24  22  -2  476.56   85.34
 -24  22  -2  480.30   85.46
  24  24   2  249.36   41.24
 -24 -24  -2  173.14   40.51
 -24 -24   2  226.19   41.58
  24  24  -2  249.48   40.46
  24 -24  -2  143.61   39.83
 -24  24  -2  223.15   40.50
 -24  24  -2  211.76   40.22
 -24 -26   2  227.01   35.75
  24  26   2  262.67   43.26
 -24 -26  -2  206.89   43.20
  24  26  -2  242.26   42.89
  24 -26  -2  182.25   42.27
  24 -26  -2  199.10   42.43
 -24  26  -2  257.07   43.20
 -24  26  -2  226.78   42.77
  24  28   2   18.37   10.50
 -24 -28  -2    6.30   11.77
 -24 -28   2   12.75   12.39
  24  28  -2   19.86   11.02
  24 -28  -2   18.64   10.20
  24 -28  -2   14.01   11.88
 -24  28  -2   21.77   12.19
 -24  28  -2   10.76   10.47
 -24 -30  -2   -2.89    7.52
  24  30   2   13.95   10.20
 -24 -30   2    2.79   11.69
  24  30  -2   22.85   10.14
  24 -30  -2    4.28   10.57
  24 -30  -2   11.78   11.61
 -24  30  -2    0.21   12.25
 -24  30  -2    3.77   10.29
 -24 -32   2  709.29   94.19
  24  32   2  740.52  122.65
 -24 -32  -2  568.71  122.25
  24  32  -2  767.96  122.56
  24 -32  -2  548.22  122.26
  24 -32  -2  696.12  122.80
 -24  32  -2  747.11  122.97
 -24  32  -2  661.21  122.58
 -24 -34  -2 2541.21  390.08
  24  34   2 2974.14  524.74
 -24 -34   2 3271.78  525.03
  24  34  -2 3100.12  524.82
  24 -34  -2 2766.37  524.78
 -24  34  -2 2912.63  524.87
 -24  34  -2 3180.65  524.99
 -24 -36   2  153.84   23.74
  24  36   2  117.79   25.82
 -24 -36  -2  101.29   25.55
  24  36  -2  105.73   24.77
  24 -36  -2   92.74   26.38
  24 -36  -2  105.03   25.87
 -24  36  -2  133.37   27.00
 -24  36  -2  133.82   27.42
  24  38   2   50.62   14.85
  24  38  -2   64.28   14.91
 -24 -38  -2   84.06   18.25
 -24 -38   2   89.30   20.24
  24  38  -2   60.34   16.21
  24 -38  -2   42.64   21.95
  24 -38  -2   52.70   18.48
 -24  38  -2   94.06   20.10
 -24  38  -2   58.96   18.58
  24  40   2  113.23   27.20
 -24 -40  -2  127.78   28.00
 -24 -40   2  141.92   28.60
  24  40  -2  160.00   28.88
  24  40  -2  113.79   26.29
  24 -40  -2   78.92   30.31
  24 -40  -2   89.01   28.67
 -24  40  -2  146.05   28.18
 -24  40  -2  111.11   26.85
 -24 -42   2  204.33   31.73
  24  42  -2  147.10   29.57
  24  42   2  190.90   37.17
 -24 -42  -2  200.79   38.04
  24  42  -2  205.10   38.47
  24 -42  -2  131.88   40.34
  24 -42  -2  135.45   37.38
 -24  42  -2  219.15   38.12
 -24  42  -2  189.03   37.11
 -24 -44  -2   34.08   14.93
  24  44   2   45.79   15.87
  24  44  -2   59.36   19.54
  24  44  -2   33.89   14.33
  24 -44  -2   23.40   24.64
  24 -44  -2   34.87   21.08
 -24  44  -2   45.08   20.20
 -24  44  -2   45.62   18.97
  24  46   2  146.94   27.74
 -24 -46  -2  167.28   34.85
  24  46  -2  212.64   35.31
  24  46  -2  161.30   32.30
  24 -46  -2   92.67   34.80
  24 -46  -2  122.69   34.90
 -24  46  -2  134.19   35.48
 -24  46  -2  191.26   35.25
  26   0   2 2736.68  486.19
 -26   0  -2 2784.88  486.66
  26   2   2  610.87  100.04
 -26  -2  -2  525.36  100.25
 -26  -2   2  612.50  100.68
 -26   2  -2  644.29   99.52
 -26   2  -2  356.98   99.44
  26   4   2   84.17   17.09
 -26  -4  -2   68.88   17.02
 -26  -4   2   86.55   17.84
  26   4  -2   76.54   16.46
 -26   4  -2   68.13   14.87
 -26   4  -2   52.55   14.87
  26   6  -2  142.26   24.36
  26   6   2  183.88   30.30
 -26  -6  -2  143.74   30.48
 -26  -6   2  151.13   30.73
 -26   6  -2  182.62   29.22
 -26   6  -2  114.77   28.96
  26   8  -2    5.60    7.91
  26   8   2    2.97   10.45
 -26  -8  -2   19.31   10.21
 -26  -8   2   26.61   12.98
 -26   8  -2   31.52    7.91
 -26   8  -2   17.63    6.35
  26  10   2  723.61  113.04
 -26 -10  -2  562.26  112.84
 -26 -10   2  650.41  113.51
  26  10  -2  631.10  112.73
 -26  10  -2  742.24  112.58
 -26  10  -2  450.18  112.34
  26  12   2 1200.56  177.70
 -26 -12  -2  777.84  177.32
 -26 -12   2 1063.07  177.99
  26  12  -2 1041.90  177.31
 -26  12  -2 1137.52  177.48
 -26  12  -2  750.89  177.14
  26  14   2  778.04  133.44
 -26 -14  -2  746.12  133.39
 -26 -14   2  737.98  133.66
  26  14  -2  729.51  133.02
 -26  14  -2  865.16  133.29
 -26  14  -2  618.17  133.00
  26  16   2   87.33   17.62
 -26 -16  -2   92.52   20.68
 -26 -16   2   97.53   21.26
  26  16  -2   93.57   20.14
  26 -16  -2   60.65   18.48
 -26  16  -2  136.66   20.53
 -26  16  -2   86.36   19.53
  26  18  -2   51.06   11.21
  26  18   2   56.72   13.76
 -26 -18  -2   40.77   13.17
 -26 -18   2   41.35   14.46
  26 -18  -2   30.35   10.54
 -26  18   2   23.67    9.77
 -26  18  -2   45.42   13.51
 -26  18  -2   34.85   11.81
  26  20   2 1163.08  172.38
 -26 -20  -2  988.91  172.21
 -26 -20   2 1177.93  172.74
  26  20  -2 1156.51  172.30
  26 -20  -2  713.21  171.28
 -26  20   2  527.48  171.46
 -26  20  -2 1019.03  172.15
 -26 -22   2  265.88   40.30
  26  22   2  320.67   50.01
 -26 -22  -2  224.01   49.10
  26  22  -2  298.33   49.42
  26 -22  -2  185.20   48.42
  26 -22  -2  212.56   48.41
 -26  22  -2  329.85   50.27
  26  24   2  102.54   15.56
 -26 -24  -2   21.64   16.17
 -26 -24   2   33.60   18.36
  26  24  -2  121.78   16.92
  26 -24  -2   76.60   15.51
  26 -24  -2   75.72   15.02
 -26  24  -2   38.99   17.16
 -26  24  -2   22.29   15.12
  26  26   2  120.81   24.26
 -26 -26  -2   85.23   23.42
 -26 -26   2  123.09   25.28
  26  26  -2  121.34   23.19
  26 -26  -2   82.89   22.86
  26 -26  -2   78.06   21.91
 -26  26  -2  144.49   25.59
 -26  26  -2   99.93   23.07
  26  28   2   93.21   16.61
 -26 -28  -2   33.43   16.81
 -26 -28   2   65.36   17.82
  26  28  -2   89.07   16.88
  26 -28  -2   67.07   16.15
  26 -28  -2   66.97   16.17
 -26  28  -2   45.26   17.10
 -26  28  -2   33.20   16.05
  26  30   2    5.79   10.72
 -26 -30  -2   26.42   12.47
 -26 -30   2   10.71   12.52
  26  30  -2   12.99   11.34
  26 -30  -2   14.05   11.23
  26 -30  -2    8.79   12.90
 -26  30  -2   20.98   12.72
 -26  30  -2   16.93   11.40
  26  32   2  845.63  143.83
 -26 -32  -2  726.82  144.00
 -26 -32   2  783.63  144.06
  26  32  -2  974.18  144.08
  26 -32  -2  576.35  143.48
  26 -32  -2  740.16  143.88
 -26  32  -2  992.65  144.72
 -26  32  -2  763.45  143.87
  26  34   2  174.70   36.12
 -26 -34  -2  189.38   36.56
 -26 -34   2  192.62   37.57
  26  34  -2  208.61   36.02
  26 -34  -2  139.42   37.16
  26 -34  -2  150.59   36.19
 -26  34  -2  200.67   37.07
 -26  34  -2  195.75   36.38
  26  36   2  100.54   24.35
 -26 -36  -2   79.74   24.09
 -26 -36   2   96.98   26.67
  26  36  -2  123.24   23.52
  26 -36  -2   86.51   25.54
 -26  36  -2  134.77   26.03
 -26  36  -2  137.06   26.39
  26  38   2    3.76   13.54
 -26 -38  -2   18.52   14.43
 -26 -38   2   -1.01   16.27
  26  38  -2    5.61   11.61
  26 -38  -2   -3.19   17.95
  26 -38  -2    7.37   13.04
 -26  38  -2   27.97   18.29
 -26  38  -2    5.18   12.97
 -26 -40   2    1.96   11.62
  26  40  -2   12.16    9.17
  26  40   2    8.27   13.88
 -26 -40  -2    4.02   14.38
  26  40  -2   18.02   16.95
  26 -40  -2    8.63   19.56
  26 -40  -2    0.47   14.59
 -26  40  -2    8.20   15.50
 -26  40  -2    3.97   13.23
  26  42   2  113.64   27.26
 -26 -42  -2  102.78   27.71
 -26 -42   2  108.31   28.39
  26  42  -2  164.01   29.50
  26  42  -2  128.73   25.96
  26 -42  -2   82.51   31.77
  26 -42  -2  115.18   30.58
 -26  42  -2  110.47   28.39
 -26  42  -2  130.82   27.41
  26  44   2   50.00   14.37
 -26 -44  -2   37.10   18.57
  26  44  -2   83.29   21.21
  26  44  -2   67.41   15.57
  26 -44  -2   32.55   20.83
  26 -44  -2   43.15   23.60
 -26  44  -2   26.20   20.82
 -26  44  -2   35.61   19.78
  26  46   2  517.15  117.26
 -26 -46  -2  614.08  118.33
  26  46  -2  820.19  119.02
  26  46  -2  637.52  117.25
  26 -46  -2  599.49  121.01
 -26  46  -2  617.40  119.50
 -26  46  -2  721.23  118.66
  28   0   2    0.70    9.20
 -28   0  -2    6.74   10.16
 -28   0   2    1.36    3.42
  28   2   2  112.44   19.32
 -28  -2  -2   79.49   19.37
 -28  -2   2   68.74   19.76
  28   2  -2  115.37   19.00
 -28   2  -2   68.88   17.66
 -28   2  -2   48.97   16.91
  28   4  -2   29.36    8.93
  28   4   2   31.55    9.18
 -28  -4  -2   24.76   11.38
 -28  -4   2   34.12   12.40
 -28   4  -2   36.60    8.43
 -28   4  -2   21.59    8.07
 -28  -6   2   14.44    8.82
  28   6   2   26.06   10.09
 -28  -6  -2    2.28    9.84
  28   6  -2   24.27    9.66
 -28   6  -2    5.53    6.99
 -28   6  -2    3.12    6.03
  28   8   2   80.87   18.09
 -28  -8  -2   64.60   18.09
 -28  -8   2   93.05   20.83
  28   8  -2   74.38   17.71
 -28   8  -2   86.71   16.71
 -28   8  -2   50.44   15.71
  28  10   2  141.60   18.70
 -28 -10  -2   24.88   17.44
 -28 -10   2   44.28   20.02
  28  10  -2  136.09   18.36
 -28  10  -2   42.73   16.38
 -28  10  -2   32.18   15.71
  28  12   2 1951.97  298.25
 -28 -12  -2 1521.68  298.08
 -28 -12   2 1742.51  298.43
  28  12  -2 1775.93  297.96
 -28  12  -2 1827.20  297.96
 -28  12  -2 1211.94  297.75
  28  14  -2 1478.98  225.05
  28  14   2 1915.00  302.31
 -28 -14  -2 1526.61  302.09
 -28 -14   2 1762.45  302.55
 -28  14  -2 2222.53  302.37
 -28  14  -2 1439.66  301.93
  28  16   2   49.82   13.12
 -28 -16  -2   33.20   12.85
 -28 -16   2   34.28   13.52
  28  16  -2   48.44   11.91
 -28  16   2   14.21    8.50
 -28  16  -2   37.81   12.60
 -28  16  -2   29.07   10.89
  28  18   2  203.22   35.77
 -28 -18  -2  174.09   35.67
 -28 -18   2  183.02   36.36
  28  18  -2  209.52   35.36
  28 -18  -2  138.63   34.16
 -28  18  -2  228.14   35.72
 -28  18  -2  132.65   34.54
  28  20   2  268.70   39.72
 -28 -20  -2  189.87   39.47
 -28 -20   2  246.86   40.30
  28  20  -2  282.52   39.55
  28 -20  -2  141.50   38.03
  28 -20  -2  164.73   38.19
 -28  20   2   28.57   37.67
 -28  20  -2  287.40   39.93
 -28  20  -2  200.80   38.80
  28  22   2 2558.59  350.10
 -28 -22  -2 1930.04  349.80
 -28 -22   2 2433.44  350.32
  28  22  -2 2479.30  349.95
  28 -22  -2 1560.66  348.98
 -28  22   2   89.53  348.74
 -28  22  -2 2545.63  350.12
 -28  22  -2 2119.18  349.86
  28  24   2  224.48   33.99
 -28 -24  -2  158.12   32.85
 -28 -24   2  212.27   34.52
  28  24  -2  238.33   33.24
  28 -24  -2  124.33   31.84
  28 -24  -2  145.53   32.20
 -28  24   2   -0.29   30.94
 -28  24  -2  199.64   33.12
  28  26   2   64.44   18.01
 -28 -26  -2   44.01   16.70
 -28 -26   2   79.89   19.36
  28  26  -2   75.68   16.91
  28 -26  -2   34.51   15.16
  28 -26  -2   65.17   17.54
 -28  26  -2   83.58   18.96
 -28  26  -2   50.04   16.06
  28  28   2   11.37   10.45
 -28 -28  -2    6.65   11.60
 -28 -28   2   -0.67   12.73
  28  28  -2    5.80   11.01
  28 -28  -2    8.03   10.05
  28 -28  -2    2.11   10.20
 -28  28  -2    9.69   17.00
 -28  28  -2   11.52   10.73
  28  30   2   96.51   18.52
 -28 -30  -2   56.28   19.16
 -28 -30   2   55.90   19.42
  28  30  -2  111.33   19.11
  28 -30  -2   61.64   18.68
  28 -30  -2   70.62   18.26
 -28  30  -2   76.49   23.31
 -28  30  -2   55.68   18.59
 -28 -32  -2   50.67   14.72
 -28 -32   2   41.30   14.51
  28  32   2   71.82   16.57
  28  32  -2   69.06   16.64
  28 -32  -2   42.04   16.97
  28 -32  -2   56.16   16.76
 -28  32  -2   63.04   22.02
 -28  32  -2   57.86   16.85
 -28 -34  -2  633.28   94.73
  28  34   2  677.40  122.69
 -28 -34   2  830.19  123.51
  28  34  -2  715.14  122.77
  28 -34  -2  475.96  122.80
  28 -34  -2  513.56  122.43
 -28  34  -2  911.24  123.71
 -28  34  -2  672.33  122.90
  28  36   2   30.08   12.16
 -28 -36  -2   13.53   16.01
 -28 -36   2   26.93   17.89
  28  36  -2   41.99   16.95
  28 -36  -2   21.56   14.63
 -28  36  -2   30.08   16.64
 -28  36  -2   15.68   16.44
  28  38   2  267.72   51.06
 -28 -38  -2  250.08   52.07
 -28 -38   2  281.75   52.66
  28  38  -2  347.02   52.55
  28 -38  -2  190.07   52.61
  28 -38  -2  234.67   51.60
 -28  38  -2  303.01   52.50
 -28  38  -2  255.41   51.37
  28  40   2   82.67   20.54
 -28 -40  -2   51.64   21.82
 -28 -40   2   77.37   22.24
  28  40  -2  102.22   23.16
  28  40  -2   74.01   19.40
  28 -40  -2   39.20   23.87
  28 -40  -2   58.64   22.72
 -28  40  -2   82.61   22.82
 -28  40  -2   74.64   20.59
  28  42   2  159.99   34.32
 -28 -42  -2  155.13   35.40
 -28 -42   2  145.23   35.46
  28  42  -2  194.60   36.19
  28  42  -2  163.59   33.49
  28 -42  -2   94.76   35.49
 -28  42  -2  174.65   38.83
 -28  42  -2  203.24   36.13
  28  44   2   37.06   16.70
 -28 -44  -2   44.46   18.84
 -28 -44   2   39.83   19.01
  28  44  -2   44.69   20.42
  28  44  -2   37.25   14.32
  28 -44  -2   36.37   24.58
  28 -44  -2   27.35   26.04
 -28  44  -2   36.59   25.11
 -28  44  -2   46.73   20.06
  30   0   2   27.08   13.32
 -30   0  -2   83.74   15.01
  30   0  -2   16.24   10.63
 -30   0   2   69.42   11.23
 -30   0   2   40.55   10.22
 -30  -2   2   71.97   16.57
  30   2   2  107.58   18.91
 -30  -2  -2   88.57   19.44
  30   2  -2  111.59   18.56
 -30   2   2   47.14   16.21
 -30   2  -2   78.86   17.30
 -30   2  -2   44.76   16.34
 -30  -4   2   48.60   12.03
  30   4  -2   28.54   10.56
  30   4   2   38.12   12.74
 -30  -4  -2   43.50   13.15
 -30   4  -2   52.56   11.22
  30   6   2   24.88   10.60
 -30  -6  -2    9.92   10.23
 -30  -6   2   20.28   12.19
  30   6  -2   20.45    9.61
 -30   6  -2   13.38    8.35
 -30   6  -2   12.09    6.57
  30   8   2   13.40   11.52
 -30  -8  -2   26.24   11.59
 -30  -8   2   39.44   15.37
  30   8  -2   14.21   11.18
 -30   8  -2   31.95   10.42
  30  10   2   31.89   12.39
 -30 -10  -2   28.93   12.16
 -30 -10   2   28.45   15.07
  30  10  -2   14.51   11.60
 -30  10  -2   31.05   10.73
 -30  10  -2   17.91    8.78
  30  12   2 1750.19  285.18
 -30 -12  -2 1394.54  285.16
 -30 -12   2 1597.73  285.44
  30  12  -2 1801.38  285.11
 -30  12  -2 1842.23  285.12
 -30  12  -2 1191.53  284.79
  30  14   2  828.19  133.61
 -30 -14  -2  659.69  133.44
 -30 -14   2  672.96  133.78
  30  14  -2  909.13  133.46
 -30  14  -2  853.59  133.48
 -30  14  -2  488.86  132.93
 -30 -16  -2   97.78   18.14
  30  16   2  100.81   21.44
 -30 -16   2  119.62   22.11
  30  16  -2  108.48   20.69
 -30  16   2    1.79   18.45
 -30  16  -2  145.78   21.67
 -30  16  -2   79.00   20.22
 -30 -18  -2   28.31   11.57
  30  18   2   70.88   14.42
 -30 -18   2   43.13   15.26
  30  18  -2   56.57   13.11
  30 -18  -2   37.08   11.39
 -30  18   2   -2.25    9.73
 -30  18  -2   44.07   13.19
 -30  18  -2   43.79   12.42
  30  20   2 1293.32  178.11
 -30 -20  -2 1045.03  178.03
 -30 -20   2 1222.31  178.52
  30  20  -2 1201.20  177.83
  30 -20  -2  883.76  177.22
 -30  20   2    1.51  176.67
 -30  20  -2 1272.00  178.23
 -30  20  -2  943.78  177.69
  30  22  -2  588.42   65.61
  30  22   2  608.30   84.72
 -30 -22  -2  512.55   84.48
 -30 -22   2  536.70   84.99
  30 -22  -2  322.63   83.28
  30 -22  -2  378.58   83.52
 -30  22   2    2.42   82.75
 -30  22  -2  695.00   85.22
 -30  22  -2  463.55   84.02
  30  24   2  900.44  101.96
 -30 -24  -2  698.89  132.84
 -30 -24   2 1017.71  133.73
  30  24  -2  972.00  133.03
  30 -24  -2  499.83  131.95
  30 -24  -2  615.77  131.93
 -30  24  -2 1117.36  133.87
 -30  24  -2  812.37  132.97
  30  26  -2  240.35   31.66
  30  26   2  239.46   38.99
 -30 -26  -2  222.72   38.46
 -30 -26   2  250.89   39.90
  30 -26  -2  125.84   37.44
  30 -26  -2  177.50   37.48
 -30  26   2   -0.90   36.33
 -30  26  -2  295.01   39.60
  30  28   2   36.99   12.70
 -30 -28  -2   17.92   13.02
 -30 -28   2   17.93   14.45
  30  28  -2   60.03   13.80
  30 -28  -2   33.31   12.05
  30 -28  -2   26.69   14.51
 -30  28  -2   12.26   18.85
 -30  28  -2   12.64   12.24
  30  30   2  105.78   21.64
 -30 -30  -2  120.72   26.40
 -30 -30   2  124.20   26.95
  30  30  -2  138.55   26.29
  30 -30  -2   85.96   26.65
  30 -30  -2   97.56   26.86
 -30  30  -2  165.17   28.97
 -30  30  -2  128.11   26.46
  30  32   2  343.61   56.70
 -30 -32  -2  324.38   57.27
 -30 -32   2  288.16   57.10
  30  32  -2  361.94   57.01
  30 -32  -2  207.72   56.68
  30 -32  -2  231.83   56.82
 -30  32  -2  366.34   58.60
 -30  32  -2  287.71   57.01
 -30 -34   2   34.24   14.07
  30  34   2   25.38   12.76
 -30 -34  -2   35.45   16.27
  30  34  -2   38.73   17.02
  30 -34  -2   21.41   18.01
  30 -34  -2   15.80   14.83
 -30  34  -2   36.62   22.14
 -30  34  -2   46.90   17.28
  30  36   2  206.76   37.97
 -30 -36  -2  182.55   39.63
 -30 -36   2  233.66   40.65
  30  36  -2  240.92   39.81
  30 -36  -2  131.00   40.18
  30 -36  -2  152.19   39.01
 -30  36  -2  217.79   40.71
 -30  36  -2  166.63   38.71
  30  38   2   57.54   16.04
 -30 -38  -2   48.40   19.65
 -30 -38   2   51.50   21.63
  30  38  -2   69.52   20.13
  30 -38  -2   34.95   23.36
  30 -38  -2   42.28   21.39
 -30  38  -2   65.83   21.65
 -30  38  -2   55.98   17.95
  30  40  -2    5.12    9.21
  30  40   2   -1.13   14.27
 -30 -40  -2    3.84   15.97
 -30 -40   2    5.48   11.89
  30  40  -2    3.96   16.84
  30 -40  -2    2.42   19.52
  30 -40  -2   19.24   17.17
 -30  40  -2   15.64   18.65
 -30  40  -2    3.73   17.02
  30  42   2   67.56   21.02
 -30 -42  -2   74.71   23.15
 -30 -42   2   84.16   22.99
  30  42  -2  103.11   23.55
  30  42  -2   66.08   19.59
  30 -42  -2   31.30   26.40
  30 -42  -2   66.47   24.58
 -30  42  -2   64.81   25.44
 -30  42  -2   88.00   23.57
  32   0   2   -4.41    9.99
 -32   0  -2    4.23   10.40
 -32   0   2    3.53    6.81
 -32   0   2   -0.94    5.39
  32   2   2   45.70   13.94
 -32  -2  -2   62.99   15.04
 -32  -2   2   56.89   14.95
  32   2  -2   50.13   13.85
  32  -2  -2   19.97   11.02
 -32   2   2   40.55   10.83
 -32   2  -2   61.26   12.09
  32  -2   2   23.52   11.07
  32   4   2   13.56   10.94
 -32  -4  -2   36.79   12.21
 -32  -4   2   32.65   12.85
  32   4  -2   16.27   10.80
 -32   4  -2   34.32   10.65
 -32   4  -2   19.41    7.69
  32   6   2    1.99    9.89
 -32  -6  -2   -1.27    9.92
 -32  -6   2   -1.09   11.81
  32   6  -2    5.47    9.07
 -32   6  -2    6.61    6.51
 -32   6  -2    3.99    5.27
  32   8   2  414.92   58.90
 -32  -8  -2  375.57   75.65
 -32  -8   2  500.30   76.83
  32   8  -2  428.69   75.31
 -32   8  -2  477.84   75.15
 -32   8  -2  264.49   74.84
  32  10   2  726.97  127.55
 -32 -10  -2  593.61  127.92
 -32 -10   2  755.89  128.46
  32  10  -2  732.59  127.67
 -32  10  -2  736.65  127.42
  32  12   2  232.48   44.43
 -32 -12  -2  225.95   44.64
 -32 -12   2  234.75   44.66
  32  12  -2  272.69   44.40
 -32  12  -2  255.31   43.91
 -32  12  -2  160.01   43.46
  32  14   2  588.18   95.22
 -32 -14  -2  441.61   95.18
 -32 -14   2  438.23   95.42
  32  14  -2  585.17   95.12
 -32  14  -2  702.24   95.44
 -32  14  -2  372.54   94.50
  32  16   2   40.04   12.66
 -32 -16  -2   30.79   12.40
 -32 -16   2   23.48   13.30
  32  16  -2   37.47   11.79
  32 -16  -2   34.29   10.31
 -32  16   2    2.37    7.97
 -32  16  -2   31.09   12.38
 -32  16  -2   19.21   10.66
  32  18   2   95.90   19.19
 -32 -18  -2   73.50   18.91
 -32 -18   2   85.15   20.22
  32  18  -2   92.41   18.15
  32 -18  -2   56.77   16.61
 -32  18   2   -4.06   15.67
 -32  18  -2  111.18   21.59
 -32  18  -2   84.35   18.90
  32  20   2  556.30   81.37
 -32 -20  -2  446.15   81.20
 -32 -20   2  505.47   81.85
  32  20  -2  595.73   81.06
  32 -20  -2  380.33   80.54
 -32  20   2    1.76   79.56
 -32  20  -2  643.50   82.56
 -32  20  -2  347.52   80.59
  32  22   2 2636.92  379.61
 -32 -22  -2 2227.61  379.51
 -32 -22   2 2357.14  379.81
  32  22  -2 2926.49  379.53
  32 -22  -2 1708.69  378.83
 -32  22   2   -1.10  378.13
 -32  22  -2 3061.67  380.14
 -32  22  -2 2033.75  379.38
  32  24   2  260.80   37.24
 -32 -24  -2  169.35   36.27
 -32 -24   2  226.68   37.76
  32  24  -2  227.63   36.09
  32 -24  -2  142.43   34.96
  32 -24  -2  142.79   35.47
 -32  24   2    4.70   34.05
 -32  24  -2  249.79   37.25
 -32  24  -2  196.46   36.38
  32  26   2  111.04   22.14
 -32 -26  -2   92.80   21.50
 -32 -26   2  108.03   23.27
  32  26  -2  123.97   21.20
  32 -26  -2   59.22   20.00
  32 -26  -2   83.79   20.47
 -32  26   2    1.20   18.31
 -32  26  -2  118.14   22.57
 -32  26  -2   76.98   20.15
  32  28   2   26.50   10.69
 -32 -28  -2   13.64   13.85
 -32 -28   2   37.20   15.45
  32  28  -2   49.37   14.05
  32 -28  -2   11.28   12.12
  32 -28  -2   27.12   12.08
 -32  28  -2   39.53   19.06
 -32  28  -2   35.21   12.70
 -32 -30   2   43.89   14.69
  32  30   2   49.44   15.27
 -32 -30  -2   44.47   13.85
  32  30  -2   57.02   18.33
  32 -30  -2   39.23   17.40
 -32  30  -2   63.78   18.93
 -32  30  -2   50.57   15.89
  32  32   2  147.91   32.48
 -32 -32  -2  158.11   33.29
 -32 -32   2  160.24   32.92
  32  32  -2  205.50   33.78
  32 -32  -2  105.84   32.48
  32 -32  -2  117.43   34.17
 -32  32  -2  174.94   34.34
 -32  32  -2  166.11   33.75
 -32 -34  -2   41.48   12.85
  32  34   2   18.30   11.84
 -32 -34   2   13.42   17.86
  32  34  -2   15.00   16.67
  32 -34  -2   18.04   20.09
 -32  34  -2   30.95   18.01
 -32  34  -2   19.07   14.23
  32  36   2   39.65   11.62
 -32 -36  -2   15.57   17.22
 -32 -36   2   39.35   19.32
  32  36  -2   52.39   18.19
  32 -36  -2   32.35   17.45
 -32  36  -2   28.36   20.04
 -32  36  -2   25.19   15.61
  32  38   2  188.35   38.31
 -32 -38  -2  212.66   40.54
 -32 -38   2  215.24   41.51
  32  38  -2  218.14   40.57
  32 -38  -2  133.00   42.37
  32 -38  -2  162.40   41.04
 -32  38  -2  255.69   42.45
 -32  38  -2  166.32   39.51
  32  40   2   24.20   15.78
 -32 -40  -2   14.12   17.43
 -32 -40   2   12.00   17.88
  32  40  -2   39.40   18.22
  32  40  -2   19.46   13.64
  32 -40  -2   18.24   22.69
  32 -40  -2   41.18   21.74
 -32  40  -2   10.86   22.26
 -32  40  -2    9.53   18.39
  34   0   2   28.07   11.34
 -34   0  -2   27.30    9.23
  34   0  -2    8.09    8.61
 -34   0   2   17.40    8.92
 -34   0   2    6.43    7.28
  34   2   2  361.71   54.21
 -34  -2  -2  313.29   54.82
 -34  -2   2  322.85   54.79
  34   2  -2  373.85   54.49
  34  -2  -2  197.24   53.18
 -34   2   2  215.34   53.08
  34  -2   2  212.68   53.24
  34   4   2   53.15   12.43
 -34  -4  -2   62.15   15.80
 -34  -4   2   50.90   15.98
  34   4  -2   64.47   14.28
  34  -4  -2   22.51   11.57
 -34   4  -2   55.40   14.38
 -34   4  -2   28.75   11.18
 -34  -6   2   70.63   17.25
  34   6   2   77.97   17.05
 -34  -6  -2   71.00   17.27
  34   6  -2   77.72   16.61
 -34   6  -2   58.21   15.98
 -34   6  -2   32.50   14.18
  34   8   2  365.13   53.77
 -34  -8  -2  256.05   53.38
 -34  -8   2  294.39   54.66
  34   8  -2  318.44   53.03
 -34   8  -2  275.53   52.60
 -34   8  -2  169.01   52.28
  34  10   2  892.33  141.04
 -34 -10  -2  690.61  141.01
 -34 -10   2  753.07  141.52
  34  10  -2  866.78  140.85
 -34  10  -2  880.88  140.80
 -34  10  -2  560.47  140.58
  34  12  -2 1285.96  163.87
  34  12   2 1346.18  218.23
 -34 -12  -2 1339.18  218.62
 -34 -12   2 1105.01  218.41
 -34  12  -2 1379.26  218.05
 -34  12  -2  814.52  217.82
  34  14   2   99.98   16.96
 -34 -14  -2   78.71   20.21
 -34 -14   2   75.40   20.29
  34  14  -2   97.55   20.09
 -34  14  -2   73.23   18.29
 -34  14  -2   57.66   17.74
  34  16   2  100.85   18.75
 -34 -16  -2   92.47   18.87
 -34 -16   2   80.23   19.67
  34  16  -2   88.71   18.01
  34 -16  -2   56.98   16.98
 -34  16   2    3.58   15.09
 -34  16  -2   90.17   17.88
 -34  16  -2   57.04   17.16
 -34 -18   2   24.58   11.71
  34  18  -2   35.85   10.02
  34  18   2   35.20   13.27
 -34 -18  -2   24.21   13.08
 -34  18  -2   28.66   16.94
 -34  18  -2   15.76   11.53
  34  20   2  269.74   43.92
 -34 -20  -2  247.88   43.90
 -34 -20   2  262.64   44.66
  34  20  -2  276.66   43.37
  34 -20  -2  164.69   42.70
 -34  20   2   -0.34   41.62
 -34  20  -2  356.88   45.89
 -34  20  -2  197.01   43.70
  34  22   2  111.65   18.70
 -34 -22  -2   90.30   21.46
 -34 -22   2  126.68   23.84
  34  22  -2  108.49   20.78
  34 -22  -2   72.48   20.95
 -34  22   2    0.67   18.18
 -34  22  -2  121.55   23.43
 -34  22  -2   78.25   21.49
  34  24   2 1333.65  177.31
 -34 -24  -2 1177.48  177.10
 -34 -24   2 1247.39  177.62
  34  24  -2 1205.60  176.70
  34 -24  -2  664.63  175.81
  34 -24  -2  801.10  176.28
 -34  24   2   -2.32  175.23
 -34  24  -2 1559.94  178.12
 -34  24  -2  925.39  176.63
  34  26   2  928.03  132.23
 -34 -26  -2  794.90  132.05
 -34 -26   2  914.99  132.68
  34  26  -2  925.99  131.79
  34 -26  -2  476.54  130.90
  34 -26  -2  634.22  131.44
 -34  26   2    4.60  130.14
 -34  26  -2 1181.16  133.26
 -34  26  -2  730.90  131.68
  34  28   2    1.23   12.49
 -34 -28  -2    5.41   12.66
 -34 -28   2    5.03   14.52
  34  28  -2    5.08   14.31
  34 -28  -2   15.16   12.34
  34 -28  -2    1.55   13.71
 -34  28   2    1.21    9.27
 -34  28  -2   -1.86   19.23
 -34  28  -2    6.91   13.35
 -34 -30   2  221.07   36.08
  34  30   2  248.98   43.44
 -34 -30  -2  265.00   44.58
  34  30  -2  274.00   44.21
  34 -30  -2  134.56   42.97
  34 -30  -2  158.35   43.23
 -34  30  -2  276.35   44.96
 -34  30  -2  179.36   43.04
  34  32   2   73.46   20.89
 -34 -32  -2   86.01   22.77
 -34 -32   2   84.71   21.68
  34  32  -2   86.40   22.34
  34 -32  -2   42.03   23.62
  34 -32  -2   67.59   24.62
 -34  32  -2  109.80   26.51
 -34  32  -2   71.92   21.02
  34  34   2  302.42   63.80
 -34 -34  -2  369.55   65.57
 -34 -34   2  324.54   65.59
  34  34  -2  422.77   65.53
  34 -34  -2  244.73   66.19
  34 -34  -2  350.69   67.08
 -34  34  -2  414.86   67.43
 -34  34  -2  323.12   64.79
  34  36   2   60.24   16.91
 -34 -36  -2   66.63   20.87
 -34 -36   2   62.73   22.27
  34  36  -2   70.86   21.08
  34 -36  -2   36.84   25.95
  34 -36  -2   44.29   23.91
 -34  36  -2   80.16   22.72
 -34  36  -2   42.75   19.06
  34  38   2    6.66    9.12
 -34 -38  -2   11.64   17.23
 -34 -38   2   18.59   19.41
  34  38  -2   11.19   17.41
  34 -38  -2    7.67   19.14
 -34  38  -2   14.41   24.05
 -34  38  -2   17.53   18.12
  36   0   2    1.42   10.80
 -36   0  -2    3.08   11.52
 -36   0   2   -2.21    7.32
 -36   0   2   -2.95    5.62
 -36  -2   2   69.70   15.31
  36   2  -2   75.49   14.63
  36   2   2   75.81   16.33
 -36  -2  -2   57.13   17.01
  36  -2  -2   38.24   14.98
 -36   2   2   53.69   14.42
 -36   2  -2   67.14   15.43
 -36   2  -2   48.94   14.09
  36  -2   2   53.11   14.77
  36   4   2   55.63   15.11
 -36  -4  -2   66.40   16.65
 -36  -4   2   86.27   17.34
  36   4  -2   73.91   15.55
  36  -4  -2   13.74   12.89
 -36   4   2   42.53   12.29
 -36   4  -2   69.56   14.07
 -36   4  -2   25.30   12.40
  36  -4   2   27.77   12.76
  36   6   2   56.65   15.28
 -36  -6  -2   64.12   16.42
 -36  -6   2   46.84   19.28
  36   6  -2   62.31   14.84
 -36   6   2   29.48   11.65
 -36   6  -2   57.65   15.04
 -36   6  -2   28.99   12.42
  36   8   2  612.12   93.21
 -36  -8  -2  499.84   93.14
 -36  -8   2  632.36   94.05
  36   8  -2  585.25   92.75
 -36   8   2  365.00   91.83
 -36   8  -2  528.05   92.43
 -36   8  -2  309.36   92.09
  36  10   2 1876.71  283.53
 -36 -10  -2 1747.62  283.74
 -36 -10   2 1894.98  283.99
  36  10  -2 1755.70  283.26
 -36  10   2  818.26  282.43
 -36  10  -2 1867.78  283.26
 -36  10  -2 1063.94  282.99
  36  12   2  226.76   44.17
 -36 -12  -2  227.43   44.45
 -36 -12   2  224.72   44.76
  36  12  -2  229.28   44.13
 -36  12  -2  244.97   44.44
  36  14   2   80.50   16.09
 -36 -14  -2   79.65   16.83
 -36 -14   2   49.75   16.80
  36  14  -2   74.69   16.40
  36 -14  -2   32.69   12.89
 -36  14   2    3.80   11.96
 -36  14  -2   55.89   15.02
 -36  14  -2   33.28   14.60
  36  16   2   13.76    8.94
 -36 -16  -2    6.16   12.51
 -36 -16   2   14.12   13.17
  36  16  -2   28.27   12.59
 -36  16   2    3.87    6.72
 -36  16  -2    1.68   14.96
 -36  16  -2    4.35   10.26
  36  18   2   20.20   12.66
 -36 -18  -2   19.00   12.75
 -36 -18   2   23.77   14.20
  36  18  -2   14.66   11.51
  36 -18  -2   15.71   12.37
 -36  18   2    2.32    8.07
 -36  18  -2   24.71   16.57
 -36  18  -2   17.09   13.34
 -36 -20  -2   83.59   19.17
  36  20   2  133.34   22.59
 -36 -20   2  102.97   21.54
  36  20  -2  127.16   21.83
  36 -20  -2   83.08   21.08
 -36  20   2    2.02   19.26
 -36  20  -2  121.47   26.03
 -36  20  -2   78.08   22.62
  36  22   2  451.90   52.30
 -36 -22  -2  370.25   65.64
 -36 -22   2  478.60   66.90
  36  22  -2  443.95   65.28
  36 -22  -2  252.14   64.76
 -36  22   2   -1.81   63.50
 -36  22  -2  481.38   66.76
 -36  22  -2  290.45   64.99
 -36 -24   2  803.75   94.67
  36  24  -2  847.52   93.19
  36  24   2  844.02  121.73
 -36 -24  -2  659.61  121.25
  36 -24  -2  490.37  120.73
 -36  24  -2  995.51  122.58
 -36  24  -2  673.65  121.49
  36  26   2  234.61   36.50
 -36 -26  -2  190.36   36.48
 -36 -26   2  243.58   38.67
  36  26  -2  242.39   36.48
  36 -26  -2   95.07   34.47
  36 -26  -2  146.86   35.74
 -36  26   2   -2.27   33.52
 -36  26  -2  265.82   38.48
 -36  26  -2  149.96   35.06
  36  28   2   26.75   14.80
 -36 -28  -2   29.60   16.33
 -36 -28   2   24.26   16.27
  36  28  -2   27.04   15.53
  36 -28  -2   18.71   16.67
 -36  28   2   -2.92   12.36
 -36  28  -2   33.40   18.62
 -36  28  -2   21.99   12.99
  36  30   2   16.54   13.98
 -36 -30  -2    5.80   16.07
 -36 -30   2   31.13   15.65
  36  30  -2   13.89   15.36
  36 -30  -2   -2.10   16.59
  36 -30  -2    6.93   20.23
 -36  30  -2   27.94   22.65
  36  32   2  101.03   23.78
 -36 -32  -2  100.05   25.76
 -36 -32   2   90.93   24.36
  36  32  -2  138.75   25.37
  36 -32  -2   80.02   29.91
  36 -32  -2   56.79   27.68
 -36  32  -2  103.06   27.22
 -36  32  -2   84.54   25.55
  36  34   2   42.35   14.97
 -36 -34  -2   25.92   19.64
 -36 -34   2   32.65   20.42
  36  34  -2   70.15   19.32
  36 -34  -2   47.70   24.53
  36 -34  -2   53.60   24.50
 -36  34  -2   36.29   21.42
 -36  34  -2   35.00   17.47
  36  36   2   48.26   15.60
 -36 -36  -2   45.59   20.53
 -36 -36   2   28.66   21.30
  36  36  -2   59.14   20.17
  36 -36  -2   34.67   26.58
  36 -36  -2   58.75   27.95
 -36  36  -2   35.86   22.03
 -36  36  -2   47.92   18.42
  38   0   2  733.99   89.82
 -38   0  -2  530.24   89.90
 -38   0   2  424.72   88.71
 -38   0   2  223.14   88.16
  38   2   2   44.68   13.62
 -38  -2  -2   44.92   14.66
 -38  -2   2   34.77   15.34
  38   2  -2   53.21   14.84
  38  -2  -2   26.88   11.82
 -38   2   2   16.05   11.58
 -38   2  -2   28.45   14.06
  38  -2   2   29.61   12.09
  38   4   2   23.70   12.29
 -38  -4  -2   19.29   13.09
 -38  -4   2   38.29   16.14
  38   4  -2   29.98   13.14
  38  -4  -2   12.33   10.33
 -38   4   2   12.74    9.36
 -38   4  -2    9.96   12.68
 -38   4  -2    8.20    8.06
  38  -4   2   23.32   10.74
  38   6   2   25.14   12.55
 -38  -6  -2   26.94   13.40
 -38  -6   2   27.20   16.83
  38   6  -2   16.12   11.44
  38  -6  -2    3.83    8.81
 -38   6   2    7.87    7.47
 -38   6  -2    7.32   12.91
 -38   6  -2    6.89    7.50
  38   8   2  465.59   68.99
 -38  -8  -2  409.26   69.21
 -38  -8   2  395.66   69.81
  38   8  -2  446.90   68.55
 -38   8   2  251.60   67.40
 -38   8  -2  383.07   68.44
 -38   8  -2  205.37   67.55
  38  10   2  822.00  114.02
 -38 -10  -2  659.79  114.06
 -38 -10   2  722.03  114.23
  38  10  -2  729.79  113.57
 -38  10   2  326.61  112.52
 -38  10  -2  663.03  113.43
 -38  10  -2  406.23  113.19
  38  12   2  214.36   38.84
 -38 -12  -2  214.82   39.22
 -38 -12   2  187.80   39.51
  38  12  -2  223.22   38.72
 -38  12  -2  215.00   39.34
 -38  12  -2  114.38   38.02
  38  14   2   44.49   13.59
 -38 -14  -2   30.56   13.73
 -38 -14   2   40.67   14.58
  38  14  -2   30.66   13.82
  38 -14  -2   20.86   10.94
 -38  14   2   -3.67    8.82
 -38  14  -2   31.48   17.51
 -38  14  -2   22.25   12.12
  38  16   2   69.60   16.11
 -38 -16  -2   49.09   16.72
 -38 -16   2   47.24   17.81
  38  16  -2   79.30   16.84
 -38  16   2    0.48   12.07
 -38  16  -2   55.56   17.35
 -38  16  -2   39.37   16.90
  38  18   2   40.12   11.90
 -38 -18  -2   32.55   15.08
 -38 -18   2   36.67   15.98
  38  18  -2   55.84   15.01
  38 -18  -2   22.45   13.36
 -38  18   2    2.13   10.24
 -38  18  -2   36.19   18.15
 -38  18  -2   23.61   13.38
  38  20   2   31.49   13.20
 -38 -20  -2    0.40   13.14
 -38 -20   2   -0.48   15.18
  38  20  -2   45.01   16.10
  38 -20  -2   26.29   14.31
 -38  20   2   -6.04    7.93
 -38  20  -2    6.10   18.38
 -38  20  -2    4.41   13.98
  38  22   2   78.66   19.98
 -38 -22  -2   65.49   19.95
 -38 -22   2  105.29   23.60
  38  22  -2   85.34   21.10
 -38  22   2    5.15   16.86
 -38  22  -2   90.20   22.00
 -38  22  -2   52.15   20.01
  38  24   2  452.14   73.08
 -38 -24  -2  454.93   73.25
 -38 -24   2  525.82   74.80
  38  24  -2  492.24   73.11
  38 -24  -2  309.01   72.47
 -38  24   2    3.06   70.70
 -38  24  -2  549.39   75.47
 -38  24  -2  332.30   72.35
  38  26   2  441.68   66.60
 -38 -26  -2  369.04   66.53
 -38 -26   2  455.57   68.22
  38  26  -2  526.16   66.80
  38 -26  -2  226.96   65.41
  38 -26  -2  326.25   67.19
 -38  26   2    4.61   64.04
 -38  26  -2  465.87   68.98
 -38  26  -2  322.68   66.47
 -38 -28   2   24.95   12.78
  38  28   2    8.24   14.79
 -38 -28  -2   31.65   16.13
  38  28  -2   21.30   16.59
 -38  28   2    7.58   12.79
 -38  28  -2   27.99   19.31
 -38  28  -2   16.70   13.37
  38  30   2  116.29   25.23
 -38 -30  -2  118.88   26.49
 -38 -30   2   94.10   25.96
  38  30  -2  131.23   26.18
  38 -30  -2   63.23   26.92
  38 -30  -2   82.81   25.94
 -38  30  -2  101.81   24.65
  38  32   2   94.15   24.19
 -38 -32  -2  128.24   26.45
 -38 -32   2  108.63   25.25
  38  32  -2   86.42   25.02
  38 -32  -2   76.94   31.24
  38 -32  -2   64.51   27.03
 -38  32  -2  104.77   29.08
 -38  32  -2  103.63   26.91
  40   0   2    5.56   11.83
 -40   0  -2    9.49   13.13
  40   0  -2   -1.36   10.02
 -40   0   2    5.37    9.90
 -40   0   2    3.00    8.30
  40   2   2  855.08  119.18
 -40  -2  -2  795.98  119.47
 -40  -2   2  838.81  119.93
  40   2  -2  914.90  119.51
  40  -2  -2  452.09  118.21
 -40   2   2  574.51  118.29
 -40   2  -2  757.10  118.98
 -40   2  -2  264.88  117.70
  40  -2   2  454.24  118.19
  40   4   2  342.39   55.69
 -40  -4  -2  285.93   55.83
 -40  -4   2  329.92   57.43
  40   4  -2  392.24   56.06
 -40   4   2  205.15   54.36
 -40   4  -2  300.63   56.07
  40  -4   2  179.29   54.70
  40   6   2  124.78   23.87
 -40  -6  -2  120.45   24.08
 -40  -6   2  127.87   26.14
  40   6  -2  118.90   23.28
 -40   6   2   52.32   20.48
 -40   6  -2  107.33   23.09
 -40   6  -2   39.04   20.40
  40   8   2  311.07   47.55
 -40  -8  -2  289.39   48.12
 -40  -8   2  301.82   48.95
  40   8  -2  285.85   46.98
  40  -8  -2  132.64   45.70
 -40   8   2  166.65   45.71
 -40   8  -2  314.61   47.95
 -40   8  -2  131.97   45.70
  40  10   2 1162.37  185.02
 -40 -10  -2 1277.96  185.66
 -40 -10   2 1164.60  185.47
  40  10  -2 1258.93  184.92
 -40  10   2  564.24  183.78
 -40  10  -2 1123.74  184.98
 -40  10  -2  627.94  184.27
  40  12   2  102.73   19.03
 -40 -12  -2   78.60   19.27
 -40 -12   2   75.40   19.70
  40  12  -2   89.23   18.38
 -40  12   2    8.84   15.51
 -40  12  -2   80.40   22.18
 -40  12  -2   45.71   19.14
 -40 -14   2  233.43   41.55
  40  14   2  294.54   50.57
 -40 -14  -2  252.27   50.62
  40  14  -2  317.70   50.50
 -40  14  -2  293.36   51.90
 -40  14  -2  164.12   49.91
  40  16  -2   32.32   11.89
  40  16   2   29.29   14.30
 -40 -16  -2   39.27   14.68
 -40 -16   2   36.82   17.24
 -40  16  -2   26.54   15.78
  40  18   2   64.66   17.94
 -40 -18  -2   58.08   18.28
 -40 -18   2   58.70   19.54
  40  18  -2   61.60   17.62
 -40  18   2    0.87   13.57
 -40  18  -2   73.00   22.71
 -40  18  -2   53.90   16.80
  40  20   2   14.67   14.07
 -40 -20  -2   26.19   15.54
 -40 -20   2   18.63   17.84
  40  20  -2   20.63   14.10
  40 -20  -2   20.26   13.85
 -40  20   2    1.57    9.83
 -40  20  -2   26.37   20.16
 -40  20  -2   11.94   15.38
  40  22   2   14.74   14.52
 -40 -22  -2    4.49   14.99
 -40 -22   2    9.73   19.11
  40  22  -2   21.23   15.24
  40 -22  -2   18.57   15.14
 -40  22   2    5.26   11.23
 -40  22  -2   17.04   16.77
 -40  22  -2    8.36   15.06
  40  24   2  291.69   48.83
 -40 -24  -2  299.23   49.13
 -40 -24   2  302.32   50.96
  40  24  -2  332.78   49.43
 -40  24   2    2.64   45.92
 -40  24  -2  330.55   52.33
 -40  24  -2  176.67   47.67
  40  26   2   17.22   15.38
 -40 -26  -2   17.25   15.12
 -40 -26   2   23.41   18.54
  40  26  -2   19.32   16.55
 -40  26   2    0.90   11.73
 -40  26  -2   14.32   23.57
 -40  26  -2    8.71   16.02
  40  28   2   17.79   15.42
 -40 -28  -2   21.85   17.04
 -40 -28   2   24.51   16.79
  40  28  -2   20.99   17.01
  40 -28  -2   15.27   21.56
 -40  28   2   -5.53   13.21
 -40  28  -2   28.78   28.47
 -40  28  -2   11.46   13.84
  40  30   2   12.83   14.98
 -40 -30  -2   24.22   21.19
 -40 -30   2   23.56   16.69
  40  30  -2   12.27   17.26
  40 -30  -2   23.84   24.72
 -40  30  -2   11.63   24.29
 -40  30  -2   14.08   14.56
  42   0   2 1418.80  163.65
 -42   0  -2 1334.10  164.24
  42   0  -2  653.15  162.35
 -42   0   2  957.04  162.84
 -42   0   2  202.09  161.61
  42   2   2  911.83  121.38
 -42  -2  -2  838.99  121.79
 -42  -2   2  972.85  122.83
  42   2  -2 1030.35  121.94
  42  -2  -2  422.49  120.27
 -42   2   2  601.57  120.41
 -42   2  -2  649.07  121.02
 -42   2  -2  149.49  119.50
  42  -2   2  450.75  120.25
  42   4   2  105.39   21.58
 -42  -4  -2  100.70   22.45
 -42  -4   2  122.20   25.33
  42   4  -2  106.54   22.40
 -42   4   2   93.14   21.50
 -42   4  -2   87.81   22.55
 -42   4  -2   21.89   19.00
  42  -4   2   56.39   20.00
  42   6   2   48.65   13.11
 -42  -6  -2   44.00   15.46
 -42  -6   2   46.27   18.74
  42   6  -2   52.71   15.75
 -42   6   2   20.42   13.48
 -42   6  -2   35.73   17.94
 -42   6  -2   -2.58   11.85
  42   8   2   29.28   14.75
 -42  -8  -2   29.43   17.45
 -42  -8   2   36.35   16.90
  42   8  -2   40.12   15.06
  42  -8  -2   17.38   12.01
 -42   8   2   19.25   12.07
 -42   8  -2   45.04   19.79
 -42   8  -2   14.74   10.95
  42  10   2   26.40   13.93
 -42 -10  -2   14.54   16.75
 -42 -10   2   19.72   14.75
  42  10  -2   24.36   13.87
 -42  10   2    6.05   10.34
 -42  10  -2   18.78   17.78
 -42  10  -2    0.05   13.10
  42  12   2   89.52   19.79
 -42 -12  -2   88.71   21.88
 -42 -12   2   76.50   21.18
  42  12  -2   83.93   20.20
 -42  12  -2   64.09   24.86
 -42  12  -2   37.95   20.37
  42  14   2    7.16   12.56
 -42 -14  -2   12.72   13.59
 -42 -14   2    8.75   15.38
  42  14  -2    7.38   13.08
 -42  14  -2   12.93   15.60
 -42  14  -2   15.59   15.22
 -42 -16  -2    3.43    9.71
  42  16   2    5.74   13.20
 -42 -16   2    1.15   15.79
  42  16  -2    8.66   12.98
 -42  16   2    3.82    8.18
 -42  16  -2    4.82   19.16
 -42  16  -2    4.44   15.05
  42  18  -2   25.26   12.96
  42  18   2   22.09   16.12
 -42 -18  -2   61.47   16.99
 -42 -18   2   69.15   18.94
 -42  18  -2   39.69   22.91
 -42  18  -2   28.21   15.88
  42  20   2   16.54   14.40
 -42 -20  -2    9.34   14.62
 -42 -20   2    2.46   17.61
  42  20  -2   25.34   14.29
 -42  20  -2    3.10   22.12
 -42  20  -2    0.73   15.98
  42  22  -2  145.31   20.93
  42  22   2  115.36   24.62
 -42 -22  -2  109.86   25.14
 -42 -22   2  136.48   28.08
  42 -22  -2   72.91   24.20
 -42  22   2   -2.44   21.00
 -42  22  -2  108.78   30.07
 -42  22  -2   53.12   24.44
  42  24   2   32.51   17.47
 -42 -24  -2   50.49   18.50
 -42 -24   2   69.94   22.44
  42  24  -2   39.32   18.19
 -42  24   2   -5.25   14.37
 -42  24  -2   38.22   26.51
 -42  24  -2   35.94   15.88
  42  26   2    3.92   13.45
 -42 -26  -2    2.60   15.60
 -42 -26   2   -0.45   18.51
  42  26  -2   13.77   17.40
  42 -26  -2    7.96   21.31
 -42  26   2   -4.03   12.09
 -42  26  -2   -6.35   16.53
  44   0   2   -2.07   14.32
 -44   0  -2    3.78   17.20
 -44   0   2   -3.99   12.23
  44   2  -2  915.73   82.12
  44   2   2  932.84  104.76
 -44  -2  -2  754.77  105.03
 -44  -2   2  903.96  105.76
 -44   2   2  615.19  103.76
 -44   2   2   54.50  101.77
 -44   2  -2  543.44  103.84
 -44   2  -2   52.09  101.95
  44  -2   2  438.22  103.24
  44   4   2  383.83   51.70
 -44  -4  -2  314.37   52.19
 -44  -4   2  317.85   52.65
  44   4  -2  389.68   51.88
  44  -4  -2  153.37   50.25
 -44   4   2  198.70   50.80
 -44   4  -2  297.82   54.16
 -44   4  -2   41.58   49.23
  44   6   2   40.44   12.83
 -44  -6  -2   45.67   17.42
 -44  -6   2   38.69   19.09
  44   6  -2   36.20   16.01
 -44   6   2    7.86   14.05
 -44   6  -2   27.29   24.84
 -44   6  -2   12.76   13.11
  44   8   2   37.82   15.17
 -44  -8  -2   18.34   17.32
 -44  -8   2   29.42   15.63
  44   8  -2   41.19   15.64
 -44   8  -2   21.82   21.15
 -44   8  -2    1.40   14.98
  44  10   2  165.47   29.93
 -44 -10  -2  172.02   32.47
 -44 -10   2  196.60   31.41
  44  10  -2  152.51   30.09
 -44  10   2   58.34   27.91
 -44  10  -2  145.36   33.08
 -44  10  -2   63.35   29.36
  44  12   2   70.51   17.36
 -44 -12  -2   38.70   20.66
 -44 -12   2   44.67   18.77
  44  12  -2   75.62   18.06
 -44  12  -2   35.74   22.39
 -44  12  -2   26.04   18.80
  44  14   2   10.42   13.16
 -44 -14  -2   -5.88   15.99
 -44 -14   2   -6.02   16.66
  44  14  -2   13.23   13.87
 -44  14  -2   11.21   19.86
 -44  14  -2    0.54   15.88
  44  16   2   16.69   11.95
 -44 -16  -2   39.70   15.72
 -44 -16   2   24.03   17.42
  44  16  -2   11.99   14.66
 -44  16  -2   16.68   17.52
 -44  16  -2   21.69   14.58
  44  18   2   17.65   13.38
 -44 -18  -2   19.59   17.79
 -44 -18   2   18.51   17.28
  44  18  -2   14.14   14.43
 -44  18  -2    7.35   22.45
 -44  18  -2   19.92   17.78
  44  20   2   -4.13   13.14
 -44 -20  -2   11.11   17.57
 -44 -20   2   23.27   20.52
  44  20  -2    8.25   14.26
 -44  20  -2    7.63   19.32
 -44  20  -2   -5.30   17.45
  44  22   2   28.00   15.43
 -44 -22  -2   34.78   19.68
 -44 -22   2   31.28   22.01
  44  22  -2   28.81   16.15
 -44  22  -2   20.25   26.76
 -44  22  -2   14.91   14.77
  46   0   2  575.68   71.06
 -46   0  -2  658.95   72.75
 -46   0   2  301.39   69.96
 -46  -2  -2  506.78   64.57
  46   2   2  770.90   81.03
 -46  -2   2  687.47   81.71
  46   2  -2  735.71   81.48
 -46   2   2  416.19   80.30
 -46   2   2    1.31   77.34
 -46   2  -2  374.48   80.44
 -46   2  -2   12.39   77.62
  46   4   2  111.03   21.31
 -46  -4  -2   87.27   19.41
 -46  -4   2  111.21   23.73
  46   4  -2  114.08   21.94
  46  -4  -2   28.54   20.69
 -46   4   2   47.38   21.05
 -46   4  -2   36.30   24.59
 -46   4  -2   -1.39   18.83
  46   6   2   65.78   15.71
 -46  -6  -2   83.68   20.69
 -46  -6   2   60.64   18.98
  46   6  -2   68.09   19.13
  46  -6  -2   29.97   18.13
 -46   6   2   19.57   17.35
 -46   6  -2   65.05   29.24
 -46   6  -2   16.85   16.46
  46   8   2   59.09   18.79
 -46  -8  -2   60.37   20.76
 -46  -8   2   57.56   19.79
  46   8  -2   74.81   19.42
 -46   8  -2   54.56   26.36
 -46   8  -2   17.73   19.72
  46  10   2  157.45   29.62
 -46 -10  -2  153.55   32.66
 -46 -10   2  130.87   30.29
  46  10  -2  138.88   29.56
 -46  10  -2  140.05   37.17
 -46  10  -2   45.34   29.34
  46  12   2  162.74   27.10
 -46 -12  -2  186.28   35.69
 -46 -12   2  143.12   32.83
  46  12  -2  174.40   31.86
 -46  12  -2  126.89   35.89
 -46  12  -2   57.73   32.05
  46  14   2  234.91   41.43
 -46 -14  -2  230.26   44.66
 -46 -14   2  199.65   42.38
  46  14  -2  221.64   41.10
 -46  14  -2  201.65   45.09
 -46  14  -2  107.88   41.53
  46  16   2    5.79   13.61
 -46 -16  -2   10.82   21.39
 -46 -16   2    6.51   17.26
  46  16  -2   10.81   14.86
 -46  16  -2   -6.82   23.61
 -46  16  -2    2.38   18.09
  48   0   2    9.80   17.98
 -48   0  -2   -3.63   18.41
 -48   0   2   -5.13   18.62
  48   2   2  142.28   25.80
 -48  -2  -2  141.04   27.10
 -48  -2   2  144.97   26.68
  48   2  -2  157.27   27.50
  48  -2  -2   41.16   23.93
 -48   2   2   87.92   27.50
 -48   2   2    0.17   19.41
 -48   2  -2   34.36   24.38
 -48   2  -2   -3.36   21.00
  48   4   2   42.62   14.49
 -48  -4  -2   26.81   21.18
 -48  -4   2   26.41   19.00
  48   4  -2   34.28   20.14
  48  -4  -2    4.90   17.45
 -48   4   2   28.11   16.19
 -48   4   2    7.32   13.12
 -48   4  -2    5.12   21.21
 -48   4  -2  -15.83   16.44
  48   6   2   -3.94   17.42
 -48  -6  -2   -3.12   20.07
 -48  -6   2   10.41   17.60
  48   6  -2   -2.13   15.86
   1   1   3   45.30   12.14
  -1  -1  -3   53.61   10.92
  -1  -1   3   60.28   11.89
   1   1  -3   45.80   11.44
   1  -1  -3   34.44   11.62
  -1   1   3   56.71   11.64
  -1   1  -3   54.53   11.20
   1  -1   3   44.08   11.26
   1   3   3   83.34   21.33
  -1  -3  -3  125.88   20.63
  -1  -3   3  145.00   20.95
   1   3  -3   74.98   20.55
   1  -3  -3   79.77   20.76
  -1   3   3  130.97   20.92
  -1   3  -3  125.82   20.49
   1  -3   3   78.58   20.33
   1   5   3  197.76   30.06
  -1  -5  -3  111.93   30.28
  -1  -5   3  107.53   30.14
   1   5  -3  215.44   30.41
   1  -5  -3  181.01   30.10
  -1   5   3   95.43   29.96
   1  -5   3  196.34   29.99
   1   7   3   10.86    7.82
  -1  -7  -3   33.65    9.52
  -1  -7   3   39.11    7.88
   1   7  -3    6.11    6.95
   1  -7  -3    5.12    7.86
  -1   7   3   34.09    7.19
  -1   7  -3   36.95    7.90
   1  -7   3    6.64    6.85
   1   9   3   10.84    7.40
  -1  -9  -3   14.44    6.64
  -1  -9   3   13.83    6.36
   1   9  -3    9.02    7.09
   1  -9  -3   13.25    6.38
  -1   9   3   10.99    5.91
  -1   9  -3   10.63    6.28
   1  -9   3   12.70    5.63
   1  11   3   70.06   13.99
  -1 -11  -3   44.89   14.14
   1  11  -3   85.19   14.24
   1 -11  -3   85.02   14.48
  -1  11   3   51.76   13.86
  -1  11  -3   44.43   14.14
   1 -11   3   70.92   13.77
   1  13   3  101.22   22.41
  -1 -13  -3  121.82   23.07
  -1 -13   3  113.07   22.65
   1  13  -3  115.65   22.93
   1 -13  -3  117.81   22.43
  -1  13   3  105.93   22.45
  -1  13  -3  128.48   22.99
   1 -13   3  115.71   22.47
   1  15   3  904.43  173.06
  -1 -15  -3 1004.78  173.19
  -1 -15   3  939.58  173.20
   1  15  -3 1071.19  172.94
   1 -15  -3  946.15  172.92
  -1  15   3  961.48  173.21
  -1  15  -3  994.79  173.25
   1 -15   3  957.28  173.14
   1  17   3 3889.13  731.40
  -1 -17  -3 4236.01  731.49
  -1 -17   3 4122.96  731.53
   1  17  -3 3992.46  731.31
   1 -17  -3 4714.02  731.41
  -1  17   3 3902.88  731.37
  -1  17  -3 4313.23  731.55
   1 -17   3 4041.90  731.45
   1  19   3 1197.00  202.54
  -1 -19  -3 1206.27  202.68
  -1 -19   3 1079.22  202.29
   1  19  -3 1068.81  202.28
   1 -19  -3 1312.65  202.38
  -1  19   3 1206.89  202.53
  -1  19  -3 1142.43  202.53
   1 -19   3  922.71  202.27
   1  21   3   96.88   22.82
  -1 -21  -3  102.05   23.29
   1  21  -3  111.43   22.73
   1 -21  -3  107.84   23.27
  -1  21   3  148.93   23.51
  -1  21  -3  128.64   23.46
   1 -21   3  103.65   22.83
   1  23   3   90.81   19.54
  -1 -23  -3   81.95   20.96
  -1 -23   3   91.32   20.21
   1  23  -3  112.39   20.23
   1 -23  -3  103.50   20.14
   1 -23  -3  110.62   19.19
  -1  23   3   95.26   20.85
  -1  23  -3   66.26   19.88
   1 -23   3   75.99   19.36
   1  25   3  240.89   44.54
  -1 -25  -3  233.25   44.78
  -1 -25   3  251.82   45.30
   1  25  -3  231.78   44.37
   1  25  -3  251.02   44.40
   1 -25  -3  258.36   44.53
   1 -25  -3  236.37   44.25
  -1  25   3  255.80   44.69
  -1  25  -3  219.97   44.70
   1 -25   3  204.22   44.38
   1  27   3  645.71  110.56
  -1 -27  -3  437.00  110.35
  -1 -27   3  551.71  110.52
   1  27  -3  695.81  110.51
   1  27  -3  756.00  110.57
   1 -27  -3  667.48  110.50
   1 -27  -3  754.93  110.60
  -1  27  -3  467.07  110.36
   1 -27   3  569.73  110.44
   1  29   3  225.84   49.87
  -1 -29  -3  345.45   50.52
   1  29  -3  235.41   49.78
   1  29  -3  272.28   49.88
   1 -29  -3  263.81   49.93
   1 -29  -3  275.24   50.11
  -1  29  -3  316.62   50.93
   1 -29   3  212.01   49.64
   1  31   3    5.15    9.71
  -1 -31  -3   11.52   10.92
   1  31  -3    4.62   11.09
   1  31  -3   11.24    9.48
   1 -31  -3   10.26   11.87
   1 -31  -3   15.99   10.60
  -1  31  -3   18.19   10.98
   1 -31   3    9.53    8.11
   1  33   3   53.68   15.10
  -1 -33  -3   71.31   16.69
   1  33  -3   47.56   16.52
   1  33  -3   67.57   16.69
   1 -33  -3   62.85   16.18
   1 -33  -3   65.40   17.56
  -1  33  -3   62.57   16.64
   1 -33   3   45.12   14.47
   1  35   3   59.18   15.53
  -1 -35  -3   66.47   17.47
   1  35  -3   51.27   16.09
   1  35  -3   80.74   18.89
   1 -35  -3   54.77   17.01
   1 -35  -3   83.71   17.07
  -1  35  -3   47.60   15.40
   1 -35   3   58.17   15.56
   1  37   3  349.17   76.10
  -1 -37  -3  503.80   77.00
   1  37  -3  374.68   76.52
   1  37  -3  434.53   76.50
   1 -37  -3  397.94   76.82
   1 -37  -3  468.20   76.60
  -1  37  -3  443.20   76.94
   1 -37   3  360.73   76.15
   1  39   3   25.56   13.46
  -1 -39  -3   71.73   16.56
   1  39  -3   30.25   14.77
   1  39  -3   44.83   15.54
   1 -39  -3   52.58   18.40
   1 -39  -3   29.60   15.40
  -1  39  -3   86.05   16.85
   1 -39   3   33.73   13.12
  -1 -41  -3  247.42   48.34
   1  41   3  271.51   59.94
   1  41  -3  321.27   60.45
   1  41  -3  378.77   60.85
   1 -41  -3  398.52   61.39
   1 -41  -3  423.74   60.94
  -1  41  -3  250.22   60.65
   1 -41   3  279.39   59.80
   1  43   3  111.48   25.74
  -1 -43  -3  114.39   27.71
   1  43  -3  114.92   27.07
   1  43  -3  164.82   27.85
   1 -43  -3  143.08   29.90
   1 -43  -3  125.60   27.08
  -1  43  -3  104.78   27.76
   1 -43   3  104.88   25.45
   1  45   3   38.62   13.21
  -1 -45  -3   12.86   13.84
   1  45  -3   48.70   18.06
   1  45  -3   50.70   15.95
   1 -45  -3   46.15   16.94
   1 -45  -3   43.15   15.27
  -1  45  -3   19.00   15.56
  -1  45  -3   25.00   14.26
   1 -45   3   33.08   12.97
  -1 -47  -3   -1.80    9.64
   1  47   3   20.66   11.12
  -1 -47  -3    6.60   15.04
   1  47  -3   23.69   17.21
   1  47  -3   13.50   13.88
   1 -47  -3   29.68   15.94
   1 -47  -3   21.22   13.69
  -1  47  -3    0.14   14.53
  -1  47  -3    1.37   12.70
   1 -47   3   17.98   13.18
   1  49   3  161.41   29.78
  -1 -49  -3   81.16   30.90
  -1 -49  -3  106.73   29.95
   1  49  -3  160.88   35.49
   1  49  -3  169.90   32.23
   1 -49  -3  167.31   34.95
   1 -49  -3  188.07   34.65
  -1  49  -3   94.75   30.67
  -1  49  -3   92.92   29.94
   1 -49   3  147.83   29.94
   3   1   3   69.09   18.60
  -3  -1  -3  122.89   18.42
  -3  -1   3  107.36   18.61
   3   1  -3   73.29   18.43
   3  -1  -3   76.59   18.61
  -3   1   3  125.17   18.52
  -3   1  -3  101.63   18.16
   3  -1   3   64.20   17.95
   3   3   3  128.19   27.99
  -3  -3  -3  161.79   27.64
  -3  -3   3  184.11   28.52
   3   3  -3  127.42   27.82
   3  -3  -3  134.78   27.63
  -3   3   3  155.80   27.69
  -3   3  -3  161.71   27.45
   3  -3   3  123.03   27.46
   3   5   3  709.42  152.49
  -3  -5  -3 1030.12  152.57
  -3  -5   3 1110.01  152.74
   3   5  -3  656.62  152.25
   3  -5  -3  627.99  152.25
  -3   5   3  974.12  152.37
  -3   5  -3 1118.47  152.41
   3  -5   3  609.46  152.28
   3   7   3  781.77  113.18
  -3  -7  -3  476.80  112.88
  -3  -7   3  562.81  112.98
   3   7  -3  813.38  112.93
   3  -7  -3  735.87  112.80
  -3   7   3  481.55  112.77
  -3   7  -3  458.99  112.62
   3  -7   3  734.06  112.88
   3   9   3   27.62    8.86
  -3  -9  -3   31.06   10.67
  -3  -9   3   30.26    8.52
   3   9  -3   34.98    9.15
   3  -9  -3   30.01    8.39
  -3   9   3   29.65    8.14
  -3   9  -3   38.08    9.39
   3  -9   3   28.08    8.61
   3  11   3  150.62   23.74
  -3 -11  -3   96.18   23.92
  -3 -11   3   93.38   23.28
   3  11  -3  148.68   24.09
   3 -11  -3  147.48   23.24
  -3  11   3   89.55   23.01
  -3  11  -3   93.61   23.37
   3 -11   3  135.51   23.25
   3  13   3  158.84   30.51
  -3 -13  -3  167.36   30.80
  -3 -13   3  176.98   30.54
   3  13  -3  153.93   30.44
   3 -13  -3  154.82   30.33
  -3  13   3  155.22   30.34
  -3  13  -3  171.75   30.75
   3 -13   3  152.39   30.32
   3  15   3  503.02   93.31
  -3 -15  -3  441.46   93.38
   3  15  -3  628.55   93.26
  -3  15   3  602.38   93.46
  -3  15  -3  458.06   93.36
   3 -15   3  480.76   93.28
   3  17   3 2791.24  547.07
  -3 -17  -3 3164.88  547.20
  -3 -17   3 3105.02  547.28
   3  17  -3 2876.03  547.03
  -3  17   3 3842.98  547.27
  -3  17  -3 3157.31  547.27
   3 -17   3 2875.67  547.11
   3  19   3 1345.30  225.08
  -3 -19  -3 1176.58  225.01
  -3 -19   3 1124.03  224.96
   3  19  -3 1305.47  224.90
   3 -19  -3 1365.80  224.87
   3 -19  -3 1450.75  225.00
  -3  19   3 1443.72  225.12
  -3  19  -3 1174.89  225.01
   3 -19   3 1042.03  224.81
   3  21   3   71.69   19.59
  -3 -21  -3  112.05   19.85
  -3 -21   3   95.24   18.61
   3  21  -3   71.33   18.63
   3 -21  -3   95.23   18.81
   3 -21  -3   69.86   18.46
  -3  21   3  128.64   19.40
  -3  21  -3  108.50   19.64
   3 -21   3   69.75   19.01
   3  23   3  145.45   28.10
  -3 -23  -3  119.17   28.37
  -3 -23   3  113.07   27.73
   3  23  -3  154.30   28.21
   3 -23  -3  175.32   27.75
  -3  23  -3  140.83   28.27
   3 -23   3  151.40   28.03
   3  25   3  222.71   46.18
  -3 -25  -3  264.60   46.70
  -3 -25   3  347.12   47.22
   3  25  -3  222.65   46.17
   3 -25  -3  219.99   46.04
   3 -25  -3  256.07   46.08
  -3  25  -3  259.94   46.48
   3 -25   3  196.98   46.02
   3  27   3  440.40   94.40
  -3 -27  -3  584.84   94.94
  -3 -27   3  733.13   95.24
   3  27  -3  477.31   94.52
   3  27  -3  527.02   94.56
   3 -27  -3  494.56   94.40
   3 -27  -3  535.71   94.61
  -3  27  -3  515.31   94.74
   3 -27   3  424.10   94.25
   3  29   3 1282.81  227.05
  -3 -29  -3  959.18  226.90
  -3 -29   3 1112.61  227.00
   3  29  -3 1408.71  227.15
   3  29  -3 1529.64  227.14
   3 -29  -3 1407.24  227.04
   3 -29  -3 1660.57  227.14
  -3  29  -3  895.31  226.85
   3 -29   3 1214.81  226.91
   3  31   3  366.49   73.20
  -3 -31  -3  390.13   73.46
   3  31  -3  436.16   73.15
   3  31  -3  429.15   73.18
   3 -31  -3  406.47   73.26
   3 -31  -3  437.60   73.48
  -3  31  -3  417.12   73.55
   3 -31   3  316.73   72.89
   3  33   3  146.42   32.03
  -3 -33  -3  169.88   32.70
   3  33  -3  135.33   31.88
   3  33  -3  177.65   32.24
   3 -33  -3  162.15   32.36
   3 -33  -3  182.90   32.96
  -3  33  -3  158.81   32.79
   3 -33   3  164.88   31.86
   3  35   3    5.74    9.72
  -3 -35  -3   19.37   12.33
   3  35  -3   14.58   10.46
   3  35  -3   16.49   11.61
   3 -35  -3   16.75   11.83
   3 -35  -3   23.48   11.43
  -3  35  -3   12.80   12.39
   3 -35   3   10.66    8.92
   3  37   3  373.07   82.20
  -3 -37  -3  436.87   82.88
   3  37  -3  451.46   82.49
   3  37  -3  545.95   83.04
   3 -37  -3  544.92   83.28
  -3  37  -3  422.48   83.01
   3 -37   3  401.22   82.27
   3  39   3  260.31   57.60
  -3 -39  -3  219.74   58.15
   3  39  -3  340.83   58.15
   3  39  -3  367.17   58.40
   3 -39  -3  340.86   58.77
   3 -39  -3  352.21   58.72
  -3  39  -3  266.73   58.44
   3 -39   3  321.66   57.69
   3  41   3   76.68   22.17
  -3 -41  -3  129.72   24.46
   3  41  -3   83.85   24.55
   3  41  -3   96.20   23.70
   3 -41  -3   92.85   24.06
   3 -41  -3   89.77   24.53
  -3  41  -3  136.92   23.76
  -3  41  -3  147.87   24.82
   3 -41   3   66.22   21.47
   3  43   3  146.92   33.18
  -3 -43  -3  139.76   32.65
   3  43  -3  165.49   33.02
   3  43  -3  193.28   33.57
   3 -43  -3  154.91   35.10
   3 -43  -3  159.68   33.00
  -3  43  -3  161.43   33.02
  -3  43  -3  187.16   34.16
   3 -43   3  130.64   31.44
   3  45   3   28.39   12.68
  -3 -45  -3   17.62   13.23
   3  45  -3   41.50   14.63
   3  45  -3   32.94   15.27
   3 -45  -3   28.89   15.71
   3 -45  -3   33.15   14.41
  -3  45  -3   12.51   15.00
  -3  45  -3   21.54   13.78
   3 -45   3   30.75   13.86
   3  47   3   22.82   12.14
  -3 -47  -3   14.87   13.57
   3  47  -3   31.79   15.06
   3  47  -3   25.29   15.35
   3 -47  -3   15.75   16.13
   3 -47  -3   19.96   12.96
  -3  47  -3   15.34   15.29
  -3  47  -3   32.47   17.79
   3 -47   3   34.03   13.93
   3  49   3  203.91   40.87
  -3 -49  -3  184.37   41.69
   3  49  -3  229.08   45.60
   3  49  -3  250.72   43.36
   3 -49  -3  224.58   43.32
   3 -49  -3  225.49   41.72
  -3  49  -3  174.60   43.60
  -3  49  -3  211.23   43.59
   3 -49   3  171.36   40.23
   5   1   3  216.19   34.04
  -5  -1  -3  157.96   33.56
  -5  -1   3  179.09   34.09
   5   1  -3  177.64   33.77
   5  -1  -3  162.45   33.17
  -5   1   3  191.94   33.45
   5  -1   3  180.19   33.34
   5   3   3  348.81   61.11
  -5  -3  -3  302.49   60.78
  -5  -3   3  402.03   61.34
   5   3  -3  341.23   61.00
  -5   3   3  333.67   60.77
  -5   3  -3  365.68   60.58
   5  -3   3  270.03   60.56
   5   5   3 2560.04  360.55
  -5  -5  -3 1729.02  360.14
  -5  -5   3 1889.06  360.33
   5   5  -3 2341.97  360.28
   5  -5  -3 2258.23  360.07
  -5   5   3 1628.30  360.08
  -5   5  -3 1864.15  360.06
   5   7   3  893.28  170.34
  -5  -7  -3 1137.89  170.39
  -5  -7   3 1168.47  170.61
   5   7  -3  796.26  169.99
   5  -7  -3  894.42  170.00
  -5   7  -3 1067.72  170.01
   5  -7   3  768.27  170.03
   5   9   3   30.28    9.86
  -5  -9  -3   41.71   11.03
  -5  -9   3   44.06   10.77
   5   9  -3   34.83   10.37
   5  -9  -3   37.25    9.52
  -5   9   3   32.31    8.64
  -5   9  -3   44.27   10.18
   5  -9   3   35.77    8.98
   5  11   3  113.00   22.69
  -5 -11  -3  102.70   22.63
  -5 -11   3  120.91   22.92
   5  11  -3  112.85   22.81
   5 -11  -3  123.69   22.12
  -5  11   3  118.99   22.58
  -5  11  -3  116.29   22.92
   5 -11   3  113.88   22.19
   5  13   3   41.30   11.61
  -5 -13  -3   46.40   11.98
  -5 -13   3   41.77   11.83
   5  13  -3   45.75   11.69
   5 -13  -3   50.83   11.32
  -5  13   3   49.29   11.39
  -5  13  -3   48.92   11.84
   5 -13   3   43.91   10.67
   5  15   3  779.32  143.52
  -5 -15  -3  871.83  143.59
  -5 -15   3  781.64  143.59
   5  15  -3  750.98  143.27
   5 -15  -3  792.58  143.08
  -5  15   3  981.73  143.53
  -5  15  -3  852.64  143.55
   5 -15   3  657.49  143.30
   5  17   3 1016.19  169.00
  -5 -17  -3  724.67  168.70
  -5 -17   3  873.76  168.93
   5  17  -3  952.12  168.79
   5 -17  -3 1061.83  168.72
   5 -17  -3 1152.72  168.83
  -5  17   3 1006.43  168.86
  -5  17  -3  948.67  168.95
   5 -17   3  833.67  168.78
   5  19   3   67.47   17.20
  -5 -19  -3   95.90   17.04
  -5 -19   3  103.85   16.68
   5  19  -3   52.82   16.30
   5 -19  -3   71.50   16.66
   5 -19  -3   64.36   16.39
  -5  19  -3  122.66   18.30
   5 -19   3   46.72   16.36
   5  21   3   52.97   14.28
  -5 -21  -3   47.28   14.10
  -5 -21   3   49.03   12.97
   5  21  -3   61.05   13.16
   5 -21  -3   60.91   13.65
   5 -21  -3   70.86   12.80
  -5  21  -3   47.94   15.02
   5 -21   3   50.46   12.92
   5  23   3   22.21   10.13
  -5 -23  -3    9.49    9.89
  -5 -23   3    5.25   12.19
   5  23  -3   22.60   10.68
   5 -23  -3   28.90    9.17
   5 -23  -3   29.06    8.70
  -5  23  -3    3.62    9.38
   5 -23   3   14.82    7.54
   5  25   3  325.26   59.89
  -5 -25  -3  263.98   59.91
  -5 -25   3  345.61   60.30
   5  25  -3  355.07   59.69
   5 -25  -3  348.87   59.81
   5 -25  -3  373.93   59.64
  -5  25  -3  272.62   59.84
   5 -25   3  313.79   59.57
   5  27   3  613.24  108.49
  -5 -27  -3  432.55  108.44
  -5 -27   3  538.61  108.75
   5  27  -3  692.06  108.47
   5 -27  -3  730.73  108.44
   5 -27  -3  800.77  108.55
  -5  27  -3  408.31  108.35
   5 -27   3  585.31  108.41
   5  29   3 1309.43  282.76
  -5 -29  -3 1797.77  283.29
  -5 -29   3 2198.62  283.51
   5  29  -3 1404.87  282.86
   5  29  -3 1522.73  282.91
   5 -29  -3 1410.25  282.78
   5 -29  -3 1615.97  282.80
  -5  29  -3 1793.71  283.27
   5 -29   3 1347.83  282.87
   5  31   3  374.76   70.61
  -5 -31  -3  327.79   70.89
  -5 -31   3  411.80   71.78
   5  31  -3  396.74   70.70
   5  31  -3  398.26   70.58
   5 -31  -3  387.38   70.70
   5 -31  -3  492.40   70.72
  -5  31  -3  336.29   70.90
   5 -31   3  334.92   70.45
   5  33   3   16.77   11.58
  -5 -33  -3   34.30   13.39
   5  33  -3   30.56   12.10
   5  33  -3   23.93   11.52
   5 -33  -3   33.13   11.88
  -5  33  -3   45.74   13.52
   5 -33   3   22.77   10.26
   5  35   3    8.99   10.14
  -5 -35  -3   13.11   11.96
   5  35  -3    2.94    9.99
   5  35  -3    6.25   10.15
   5 -35  -3   12.91   13.30
   5 -35  -3    5.48    9.87
  -5  35  -3    0.35   11.73
   5 -35   3    2.31    7.87
   5  37   3  158.19   35.91
  -5 -37  -3  235.30   37.24
   5  37  -3  171.23   36.02
   5  37  -3  211.31   36.71
   5 -37  -3  175.37   36.61
   5 -37  -3  180.85   36.68
  -5  37  -3  179.05   35.43
  -5  37  -3  216.04   37.13
   5 -37   3  135.72   35.21
  -5 -39  -3  360.80   44.54
   5  39   3  222.95   53.52
   5  39  -3  246.86   53.98
   5  39  -3  283.09   54.55
   5 -39  -3  242.97   54.43
   5 -39  -3  275.47   53.98
  -5  39  -3  359.02   54.59
  -5  39  -3  372.14   55.30
   5 -39   3  238.58   53.90
   5  41   3  271.22   52.09
  -5 -41  -3  204.60   52.77
   5  41  -3  316.29   52.68
   5  41  -3  356.31   53.85
   5 -41  -3  337.61   53.32
   5 -41  -3  348.05   52.87
  -5  41  -3  176.63   52.82
  -5  41  -3  158.49   52.33
   5 -41   3  303.60   52.71
   5  43   3   22.70   14.86
  -5 -43  -3    7.15   11.95
   5  43  -3   27.12   13.15
   5  43  -3   14.25   13.62
   5 -43  -3   14.98   14.02
   5 -43  -3    9.37   11.14
  -5  43  -3   16.01   15.38
  -5  43  -3   10.47   13.13
   5 -43   3   17.43   12.75
   5  45   3   20.70   13.39
  -5 -45  -3    7.06   12.29
   5  45  -3   16.26   13.24
   5  45  -3   21.77   14.33
   5 -45  -3   20.70   14.66
   5 -45  -3   12.02   11.82
  -5  45  -3    1.70   14.00
  -5  45  -3    6.67   11.69
   5 -45   3   14.96   12.76
   5  47   3   13.62   11.30
  -5 -47  -3    1.39   12.29
   5  47  -3    9.89   17.02
   5  47  -3   13.72   16.09
   5 -47  -3   22.47   15.22
   5 -47  -3   11.45   12.00
  -5  47  -3   -3.45   20.52
  -5  47  -3    8.07   16.63
   5  49   3  135.52   31.07
  -5 -49  -3  161.06   32.31
   5  49  -3  171.60   34.52
   5  49  -3  189.57   34.08
   5 -49  -3  117.78   33.43
   5 -49  -3  137.66   31.82
  -5  49  -3  132.54   35.92
  -5  49  -3  145.26   34.40
   7   1   3   42.71   11.51
  -7  -1  -3   48.00   11.16
  -7  -1   3   57.81   12.44
   7   1  -3   42.17   11.12
   7  -1  -3   34.71    9.92
  -7   1   3   51.58    9.96
  -7   1  -3   45.53    9.73
   7  -1   3   37.18    9.90
   7   3   3  280.14   45.00
  -7  -3  -3  227.90   44.55
  -7  -3   3  271.75   45.37
   7   3  -3  259.29   44.79
   7  -3  -3  256.83   44.18
  -7   3  -3  172.08   44.07
   7  -3   3  240.73   44.22
   7   5   3 1848.72  371.92
  -7  -5  -3 2268.57  371.87
  -7  -5   3 2550.52  372.14
   7   5  -3 1855.58  371.73
   7  -5  -3 1913.91  371.55
  -7   5   3 2378.80  371.74
  -7   5  -3 2375.15  371.67
   7  -5   3 1701.28  371.65
   7   7   3 1263.60  195.40
  -7  -7  -3  945.42  195.05
  -7  -7   3 1019.74  195.25
   7   7  -3 1182.91  194.98
   7  -7  -3 1309.97  194.76
  -7   7   3 1029.04  194.89
  -7   7  -3  899.81  194.68
   7  -7   3 1165.83  194.96
   7   9   3   23.49   10.92
  -7  -9  -3   37.87   10.66
  -7  -9   3   36.98    9.50
   7   9  -3   32.68    9.91
   7  -9  -3   27.13    8.57
  -7   9   3   36.63    8.23
  -7   9  -3   28.14    8.50
   7  -9   3   28.31    8.25
   7  11   3    4.91    6.52
  -7 -11  -3    6.01    7.80
  -7 -11   3    5.62    5.99
   7  11  -3    4.48    7.74
   7 -11  -3    5.45    5.30
  -7  11   3    9.64    5.80
  -7  11  -3    8.36    7.18
   7 -11   3    2.79    4.29
   7  13   3   16.34    8.79
  -7 -13  -3   20.23    9.36
  -7 -13   3   15.44    8.32
   7  13  -3   18.83    9.21
   7 -13  -3   68.10    8.51
   7 -13  -3   24.44    7.32
  -7  13   3   25.84    8.12
  -7  13  -3   13.35    8.83
   7 -13   3   15.45    6.98
   7  15   3  154.05   21.19
  -7 -15  -3   80.56   19.76
  -7 -15   3   67.70   19.70
   7 -15  -3   99.00   18.50
   7 -15  -3  116.63   19.01
  -7  15  -3   69.71   19.80
   7 -15   3   76.62   18.63
   7  17   3  199.64   39.75
  -7 -17  -3  215.42   39.31
  -7 -17   3  270.33   39.53
   7  17  -3  179.16   39.26
   7 -17  -3  188.12   38.90
   7 -17  -3  196.14   38.95
  -7  17  -3  300.14   39.62
   7 -17   3  144.49   38.79
   7  19   3   73.10   13.94
  -7 -19  -3   20.46   12.84
  -7 -19   3   24.52   14.94
   7  19  -3   72.57   13.73
   7 -19  -3   78.54   12.79
   7 -19  -3   80.02   12.48
  -7  19  -3   21.57   13.13
   7 -19   3   60.50   12.61
   7  21   3   21.07    9.95
  -7 -21  -3   27.94    9.52
  -7 -21   3   28.95   11.73
   7  21  -3   27.64    9.83
   7 -21  -3   18.63    9.03
   7 -21  -3   24.99    8.53
  -7  21  -3   30.35   10.04
   7 -21   3   18.09    7.73
   7  23   3  122.23   24.32
  -7 -23  -3  107.69   24.20
  -7 -23   3  128.62   24.51
   7  23  -3  121.49   24.49
   7 -23  -3  114.85   23.57
   7 -23  -3  118.51   23.61
  -7  23  -3  114.86   24.81
   7 -23   3  109.03   23.44
   7  25   3   59.13   21.17
  -7 -25  -3  137.89   21.84
  -7 -25   3  167.55   22.27
   7  25  -3   84.90   21.67
   7 -25  -3   61.64   20.54
   7 -25  -3   83.02   20.80
  -7  25  -3  117.64   21.53
   7 -25   3   75.48   20.27
   7  27   3  594.37  122.60
  -7 -27  -3  745.71  123.07
  -7 -27   3  943.01  123.29
   7  27  -3  565.18  122.48
   7 -27  -3  584.21  122.35
   7 -27  -3  723.82  122.56
  -7  27  -3  807.26  123.06
   7 -27   3  506.94  122.45
   7  29   3 1588.85  241.43
  -7 -29  -3 1614.65  323.79
  -7 -29   3 1915.91  323.93
   7  29  -3 1938.29  323.73
   7 -29  -3 2106.22  323.76
   7 -29  -3 2256.07  323.67
  -7  29  -3 1381.01  323.60
   7 -29   3 1794.92  323.72
   7  31   3  389.12   76.62
  -7 -31  -3  402.95   77.02
  -7 -31   3  473.43   77.21
   7  31  -3  401.05   76.77
   7  31  -3  453.84   76.78
   7 -31  -3  466.75   76.45
  -7  31  -3  394.77   76.96
   7 -31   3  377.26   76.54
   7  33   3  129.75   26.31
  -7 -33  -3  101.30   27.07
  -7 -33   3  122.15   27.79
   7  33  -3  141.20   26.79
   7  33  -3  155.01   27.37
   7 -33  -3  148.83   27.66
   7 -33  -3  139.78   26.72
  -7  33  -3  112.23   26.99
  -7  33  -3  112.95   27.05
   7 -33   3  111.43   26.15
  -7 -35  -3   26.83   12.86
   7  35   3   46.63   13.89
   7  35  -3   44.25   14.23
   7  35  -3   58.56   13.91
   7 -35  -3   50.25   16.18
   7 -35  -3   44.77   14.89
  -7  35  -3   36.58   16.22
  -7  35  -3   45.00   16.05
   7 -35   3   42.04   13.84
   7  37   3  404.26   72.65
  -7 -37  -3  356.72   73.05
   7  37  -3  387.66   73.02
   7  37  -3  459.83   72.86
   7 -37  -3  487.44   72.63
  -7  37  -3  302.89   72.87
  -7  37  -3  345.69   73.11
   7 -37   3  406.56   72.72
   7  39   3 1255.55  224.99
  -7 -39  -3 1034.28  224.97
   7  39  -3 1318.44  225.06
   7  39  -3 1520.75  225.49
   7 -39  -3 1188.82  225.24
   7 -39  -3 1372.63  225.12
  -7  39  -3 1125.05  225.13
  -7  39  -3 1208.76  225.39
   7 -39   3 1317.67  225.14
   7  41   3  410.81   96.48
  -7 -41  -3  533.25   97.63
   7  41  -3  501.57   96.95
   7  41  -3  590.67   97.48
   7 -41  -3  507.70   97.71
   7 -41  -3  508.86   96.82
  -7  41  -3  557.59   97.61
  -7  41  -3  593.50   97.91
   7 -41   3  600.21   97.23
   7  43   3   25.90   15.92
  -7 -43  -3   26.73   14.06
   7  43  -3   32.89   14.41
   7  43  -3   41.14   15.31
   7 -43  -3   26.63   17.58
   7 -43  -3   35.41   13.07
  -7  43  -3   45.58   22.57
  -7  43  -3   24.80   16.80
   7  45   3   46.22   17.84
  -7 -45  -3   55.31   16.05
   7  45  -3   42.90   16.06
   7  45  -3   34.35   16.62
   7 -45  -3   39.44   16.99
   7 -45  -3   32.55   14.90
  -7  45  -3   52.43   22.19
  -7  45  -3   53.05   19.62
   7  47   3   96.28   28.21
  -7 -47  -3  121.61   28.34
   7  47  -3  140.92   30.27
   7  47  -3  130.65   29.69
   7 -47  -3   99.62   29.04
   7 -47  -3  120.68   28.77
  -7  47  -3  159.32   32.34
  -7  47  -3  138.59   30.98
   7  49   3  334.82   70.24
  -7 -49  -3  302.71   70.79
   7  49  -3  475.16   72.29
   7  49  -3  496.29   72.09
   7 -49  -3  355.19   71.64
   7 -49  -3  376.87   71.78
  -7  49  -3  325.91   72.25
  -7  49  -3  328.01   71.96
   9   1   3  226.84   39.36
  -9  -1  -3  186.07   39.07
  -9  -1   3  198.07   39.26
   9   1  -3  246.17   39.49
  -9   1  -3  177.35   38.46
   9  -1   3  224.12   38.51
   9   3   3  528.31   91.96
  -9  -3  -3  484.52   91.67
  -9  -3   3  507.72   92.03
   9   3  -3  534.76   91.75
  -9   3  -3  492.63   91.25
   9  -3   3  517.56   91.43
   9   5   3 3875.44  611.84
  -9  -5  -3 3087.97  611.55
  -9  -5   3 3414.98  611.81
   9   5  -3 3716.54  611.61
  -9   5  -3 3262.58  611.31
   9  -5   3 3491.43  611.50
   9   7   3 1663.85  281.88
  -9  -7  -3 1749.30  281.77
  -9  -7   3 1729.65  281.95
   9   7  -3 1465.13  281.51
  -9   7  -3 1560.43  281.31
   9  -7   3 1409.54  281.47
   9   9   3   98.57   20.69
  -9  -9  -3   99.87   20.74
  -9  -9   3   96.27   20.12
   9   9  -3   92.88   20.88
  -9   9  -3  119.75   19.81
   9  -9   3   77.50   19.06
   9  11   3  214.03   38.80
  -9 -11  -3  212.99   38.33
  -9 -11   3  207.55   38.37
   9  11  -3  199.17   38.44
  -9  11  -3  210.62   38.04
   9 -11   3  185.78   38.03
   9  13   3  132.46   27.51
  -9 -13  -3  153.12   27.01
  -9 -13   3  167.57   27.01
   9  13  -3  130.92   26.96
   9 -13  -3  120.54   25.79
   9 -13  -3  120.00   25.89
  -9  13  -3  162.84   26.54
   9 -13   3  123.69   26.39
   9  15   3  277.20   48.59
  -9 -15  -3  197.27   47.76
  -9 -15   3  205.93   47.73
   9  15  -3  301.25   47.88
   9 -15  -3  295.16   47.19
   9 -15  -3  293.04   47.23
  -9  15  -3  227.32   47.80
   9 -15   3  266.02   47.66
   9  17   3   62.25   14.83
  -9 -17  -3   25.84   13.14
  -9 -17   3   31.23   13.94
   9  17  -3   58.20   13.03
   9 -17  -3   54.16   11.38
   9 -17  -3   63.41   11.89
  -9  17  -3   43.46   13.35
   9 -17   3   71.35   13.40
   9  19   3  366.38   73.09
  -9 -19  -3  323.57   72.77
  -9 -19   3  467.41   74.02
   9  19  -3  411.95   73.31
   9 -19  -3  422.49   72.53
   9 -19  -3  435.37   72.59
  -9  19  -3  410.07   72.97
   9 -19   3  396.23   73.01
   9  21   3   43.31   13.37
  -9 -21  -3   34.78   12.73
  -9 -21   3   53.45   15.36
   9  21  -3   64.01   13.45
   9 -21  -3   51.37   12.69
   9 -21  -3   42.31   11.85
  -9  21  -3   56.17   13.44
   9 -21   3   56.72   12.84
   9  23   3    9.08   10.16
  -9 -23  -3   21.45    9.28
  -9 -23   3   24.48   13.18
   9  23  -3   13.74    9.54
   9 -23  -3   18.91    8.44
   9 -23  -3   19.46    8.03
  -9  23  -3   23.59   10.57
   9 -23   3   15.87    8.73
   9  25   3  209.32   36.14
  -9 -25  -3  151.92   35.74
  -9 -25   3  145.49   35.94
   9  25  -3  187.64   35.68
   9 -25  -3  222.77   35.52
   9 -25  -3  208.64   35.24
  -9  25  -3  135.37   35.53
   9 -25   3  226.14   36.21
   9  27   3  359.65   73.47
  -9 -27  -3  321.12   73.10
  -9 -27   3  430.42   73.94
   9  27  -3  491.26   73.55
   9 -27  -3  396.11   73.18
   9 -27  -3  427.05   72.90
  -9  27  -3  386.65   73.56
  -9  27  -3  428.04   73.74
   9 -27   3  374.19   73.26
   9  29   3  602.35  135.15
  -9 -29  -3  821.32  135.73
  -9 -29   3  995.06  136.04
   9  29  -3  605.19  135.02
   9 -29  -3  615.68  135.01
   9 -29  -3  697.21  134.99
  -9  29  -3  927.72  135.63
  -9  29  -3  891.82  135.88
   9 -29   3  648.05  135.16
   9  31   3  285.89   54.47
  -9 -31  -3  272.63   55.00
  -9 -31   3  295.45   55.36
   9  31  -3  293.03   54.32
   9 -31  -3  315.38   54.47
  -9  31  -3  256.56   54.87
  -9  31  -3  282.46   55.37
   9 -31   3  340.63   54.75
   9  33   3    3.77    9.61
  -9 -33  -3   15.76   11.76
  -9 -33   3   11.84   12.79
   9  33  -3    5.27   11.01
   9  33  -3    5.64    9.85
   9 -33  -3   -2.86   12.08
   9 -33  -3    6.28    7.71
  -9  33  -3   13.21   15.52
  -9  33  -3   15.51   14.15
   9 -33   3    4.59   10.72
   9  35   3    7.18   10.22
  -9 -35  -3   10.15   12.16
  -9 -35   3   15.46   14.09
   9  35  -3    6.39   11.56
   9  35  -3   13.23   10.44
   9 -35  -3   16.99   12.80
   9 -35  -3    8.99    8.74
  -9  35  -3   16.90   13.72
  -9  35  -3   15.07   14.98
   9 -35   3   13.77   11.37
   9  37   3  120.31   25.13
  -9 -37  -3  104.83   25.99
   9  37  -3  116.64   25.39
   9  37  -3  127.13   25.14
   9 -37  -3  121.03   26.40
   9 -37  -3  125.73   25.15
  -9  37  -3  112.23   27.40
  -9  37  -3  124.59   27.58
   9 -37   3   97.24   24.01
   9  39   3  873.40  173.88
  -9 -39  -3  828.65  174.26
   9  39  -3 1023.46  174.15
   9  39  -3  965.41  174.06
   9 -39  -3  845.59  173.97
   9 -39  -3  986.85  173.85
  -9  39  -3 1094.32  174.65
  -9  39  -3 1141.32  174.84
   9  41   3 1068.50  190.74
  -9 -41  -3  872.34  190.83
   9  41  -3 1080.81  190.80
   9  41  -3 1253.50  191.18
   9 -41  -3  917.14  190.94
   9 -41  -3 1199.00  190.92
  -9  41  -3 1070.12  191.14
  -9  41  -3 1035.99  191.36
   9  43   3   66.79   19.78
  -9 -43  -3   68.97   18.84
   9  43  -3   63.86   18.76
   9  43  -3   66.67   19.63
   9 -43  -3   62.38   21.19
   9 -43  -3   53.46   21.93
  -9  43  -3   70.70   22.66
  -9  43  -3   88.26   22.87
  -9  45  -3   48.10   16.01
   9  45   3   32.71   17.08
  -9 -45  -3   32.74   15.71
   9  45  -3   36.70   17.18
   9  45  -3   43.05   17.06
   9 -45  -3   28.84   18.77
   9 -45  -3   53.15   20.48
  -9  45  -3   51.02   25.38
  -9 -47  -3   41.92   14.56
   9  47   3   38.47   18.41
   9  47  -3   40.08   22.29
   9  47  -3   52.82   18.87
   9 -47  -3   53.07   20.80
   9 -47  -3   45.34   19.22
  -9  47  -3   56.32   22.78
  -9  47  -3   46.61   20.93
   9  49   3  162.04   39.87
   9  49  -3  221.74   41.77
   9 -49  -3  166.52   44.91
  -9  49  -3  223.50   42.63
  11   1   3   94.98   18.11
 -11  -1  -3   78.07   17.94
 -11  -1   3   74.11   18.15
  11   1  -3   90.72   18.51
  11   3   3  353.60   57.14
 -11  -3  -3  259.80   56.77
 -11  -3   3  307.09   57.25
  11   3  -3  324.45   57.28
  11   5   3 1760.32  300.15
 -11  -5  -3 1608.61  299.97
 -11  -5   3 1757.58  300.22
  11   5  -3 1671.31  299.90
 -11   5  -3 1717.13  299.55
  11  -5   3 1680.99  299.72
  11   7   3 1919.64  319.55
 -11  -7  -3 1755.34  319.35
 -11  -7   3 1876.90  319.59
  11   7  -3 1854.84  319.23
 -11   7  -3 1785.34  318.92
  11  -7   3 1635.90  319.12
  11   9   3  119.52   23.12
 -11  -9  -3  110.03   22.57
 -11  -9   3  112.30   22.63
  11   9  -3  106.52   23.31
 -11   9  -3  111.48   21.92
  11  -9   3  111.96   21.73
  11  11   3  164.25   35.60
 -11 -11  -3  176.11   35.22
 -11 -11   3  226.14   36.27
  11  11  -3  176.83   35.33
 -11  11  -3  225.50   35.03
  11 -11   3  151.35   34.72
  11  13   3  135.98   25.56
 -11 -13  -3  115.66   24.82
 -11 -13   3  121.63   25.28
  11  13  -3  128.35   24.78
 -11  13  -3  115.12   24.92
  11 -13   3  138.50   24.60
  11  15   3   85.00   23.52
 -11 -15  -3  124.90   23.00
 -11 -15   3  165.58   23.60
  11  15  -3   66.90   22.29
 -11  15  -3  179.61   22.75
  11 -15   3   65.30   21.91
  11  17   3  295.85   40.18
 -11 -17  -3  141.43   38.86
 -11 -17   3  196.29   39.46
  11  17  -3  187.46   38.83
  11 -17  -3  251.64   37.94
  11 -17  -3  269.94   38.01
 -11  17  -3  164.42   38.62
 -11  17  -3  147.96   38.44
 -11 -19  -3  118.42   23.22
  11  19   3  147.99   28.94
 -11 -19   3  140.67   28.83
  11  19  -3  148.09   28.61
  11 -19  -3  149.95   27.01
  11 -19  -3  145.40   26.81
 -11  19  -3  151.12   28.40
 -11  19  -3  113.75   27.97
  11 -19   3  160.60   27.93
  11  21   3   70.65   16.44
 -11 -21  -3   25.97   15.49
 -11 -21   3   64.20   17.93
  11  21  -3   81.52   16.51
  11 -21  -3   87.65   15.20
  11 -21  -3   77.34   14.55
 -11  21  -3   64.68   17.32
 -11  21  -3   56.95   15.72
  11 -21   3   92.83   16.46
  11  23   3   36.56   11.51
 -11 -23  -3   39.68   12.74
 -11 -23   3   37.99   14.91
  11  23  -3   50.51   13.25
  11 -23  -3   52.66   11.88
  11 -23  -3   55.35   12.10
 -11  23  -3   50.57   15.04
 -11  23  -3   50.27   13.88
  11 -23   3   50.77   13.13
  11  25   3   16.17   10.42
 -11 -25  -3    9.37    9.29
 -11 -25   3   11.88   11.37
  11  25  -3   12.38    9.88
  11 -25  -3   24.17    9.26
  11 -25  -3   16.06    8.08
 -11  25  -3   20.58   12.14
  11 -25   3   20.95    9.92
  11  27   3  696.92  135.79
 -11 -27  -3  702.65  135.77
 -11 -27   3  785.14  135.94
  11  27  -3  762.15  135.72
  11 -27  -3  759.90  135.52
  11 -27  -3  802.92  135.40
 -11  27  -3  759.37  135.86
 -11  27  -3  778.33  136.05
  11 -27   3  778.97  135.81
  11  29   3  765.93  141.61
 -11 -29  -3  647.52  141.56
 -11 -29   3  864.32  141.97
  11  29  -3  769.78  141.53
  11 -29  -3  737.65  141.44
  11 -29  -3  831.96  141.26
 -11  29  -3  794.19  141.66
 -11  29  -3  869.74  142.25
  11 -29   3  824.77  141.64
  11  31   3   59.83   15.74
 -11 -31  -3   50.56   16.69
 -11 -31   3   63.12   18.66
  11  31  -3   66.23   15.02
  11 -31  -3   59.40   16.95
  11 -31  -3   60.66   15.73
 -11  31  -3   65.09   18.41
 -11  31  -3   58.58   18.31
  11  33   3  100.87   19.38
 -11 -33  -3   69.93   20.14
 -11 -33   3   81.56   21.52
  11  33  -3   83.61   18.64
  11 -33  -3   98.30   19.72
 -11  33  -3   76.79   22.29
 -11  33  -3   65.22   21.67
  11  35   3   75.10   17.94
 -11 -35  -3   57.58   19.19
 -11 -35   3   76.20   19.92
  11  35  -3   71.33   18.78
  11  35  -3   86.75   18.14
  11 -35  -3   68.61   19.11
  11 -35  -3   82.29   19.57
 -11  35  -3   70.38   21.45
 -11  35  -3   62.81   20.83
  11  37   3  153.56   31.69
 -11 -37  -3  217.14   39.89
 -11 -37   3  210.16   41.61
  11  37  -3  184.99   39.33
  11  37  -3  201.40   38.84
  11 -37  -3  223.04   39.99
 -11  37  -3  216.65   40.72
 -11  37  -3  189.03   40.59
  11  39   3 1152.82  171.13
 -11 -39  -3 1094.75  171.88
  11  39  -3 1381.21  227.49
  11  39  -3 1416.80  227.38
  11 -39  -3 1113.76  227.31
  11 -39  -3 1470.96  227.62
 -11  39  -3 1296.95  227.49
 -11  39  -3 1228.60  227.72
  11  41   3 1079.21  209.89
 -11 -41  -3 1131.06  210.29
  11  41  -3 1248.17  210.12
  11  41  -3 1254.06  210.08
  11 -41  -3  906.55  209.93
  11 -41  -3 1300.90  210.46
 -11  41  -3 1316.69  210.32
 -11  41  -3 1130.96  210.50
  11  43   3   73.29   20.53
 -11 -43  -3   48.54   19.76
  11  43  -3   84.75   22.42
  11  43  -3  107.62   20.78
  11 -43  -3   91.19   22.43
  11 -43  -3   81.14   23.66
 -11  43  -3   48.14   23.11
 -11  43  -3   62.68   23.45
 -11 -45  -3   84.95   17.77
  11  45   3   55.25   20.25
  11  45  -3   65.86   19.96
  11  45  -3   86.36   21.12
  11 -45  -3   53.28   22.38
  11 -45  -3   55.43   24.94
 -11  45  -3   76.20   23.55
 -11  45  -3   87.19   23.22
  11  47   3  134.67   27.84
 -11 -47  -3  117.43   29.25
  11  47  -3  127.84   29.24
  11  47  -3  145.52   29.78
  11 -47  -3  105.27   34.49
  11 -47  -3  125.16   32.14
 -11  47  -3  131.86   31.40
 -11  47  -3  148.70   34.43
  13   1   3   47.16   11.68
 -13  -1  -3   29.95   10.80
 -13  -1   3   29.62   11.14
  13   1  -3   37.59   11.70
  13   3   3  219.96   35.50
 -13  -3  -3  157.93   35.12
 -13  -3   3  151.54   35.44
  13   3  -3  202.28   35.17
  13   5   3 1730.46  311.25
 -13  -5  -3 1686.77  311.09
 -13  -5   3 1980.79  311.40
  13   5  -3 1676.60  310.94
  13   7   3 2230.88  335.61
 -13  -7  -3 1684.69  335.24
 -13  -7   3 1869.85  335.57
  13   7  -3 2050.10  335.24
 -13   7  -3 1664.88  334.82
  13   9   3   95.94   20.55
 -13  -9  -3   82.79   20.12
 -13  -9   3   99.61   21.93
  13   9  -3   99.47   20.13
 -13   9  -3   93.24   19.26
 -13   9  -3  102.27   19.35
  13  11   3  124.60   24.21
 -13 -11  -3   99.56   23.64
 -13 -11   3  125.81   24.99
  13  11  -3  122.64   23.82
 -13  11  -3  111.76   23.02
 -13  11  -3  118.99   22.99
  13  13   3   42.78   13.26
 -13 -13  -3   54.72   14.60
 -13 -13   3   66.55   15.15
  13  13  -3   53.70   14.35
 -13  13  -3   77.70   14.46
 -13  13  -3   71.93   14.31
  13  15   3  188.59   27.44
 -13 -15  -3  101.22   26.38
 -13 -15   3  107.08   26.90
  13  15  -3  170.80   26.95
 -13  15  -3  114.11   26.46
 -13  15  -3  113.84   26.17
  13  17   3   74.85   26.26
 -13 -17  -3  144.54   25.64
 -13 -17   3  173.04   26.50
  13  17  -3   67.65   24.92
 -13  17  -3  162.38   25.80
 -13  17  -3  151.04   25.38
  13  19   3   45.80   13.61
 -13 -19  -3   31.30   11.77
 -13 -19   3   30.64   12.60
  13  19  -3   34.34   11.47
  13 -19  -3   33.38    8.57
 -13  19  -3   26.69   11.00
 -13  19  -3   33.61   11.31
  13  21   3   59.93   13.95
 -13 -21  -3   37.42   13.11
 -13 -21   3   30.27   14.78
  13  21  -3   61.20   13.28
  13 -21  -3   42.19   10.47
 -13  21  -3   33.72   12.58
 -13  21  -3   35.51   12.88
  13  23   3  104.73   29.45
 -13 -23  -3  139.09   29.34
 -13 -23   3  200.43   31.19
  13  23  -3  132.91   29.58
  13 -23  -3  131.14   28.73
  13 -23  -3  120.10   28.51
 -13  23  -3  184.34   30.52
 -13  23  -3  190.43   30.33
  13  25   3  111.88   22.62
 -13 -25  -3   83.39   22.14
 -13 -25   3   88.25   23.34
  13  25  -3  102.76   22.51
  13 -25  -3  119.47   21.82
  13 -25  -3  106.07   21.32
 -13  25  -3  126.47   24.06
 -13  25  -3  108.83   23.44
  13  27   3  910.02  185.75
 -13 -27  -3  935.09  185.71
 -13 -27   3 1189.72  186.11
  13  27  -3  930.20  185.62
  13 -27  -3  946.11  185.46
 -13  27  -3 1197.73  186.03
 -13  27  -3 1199.94  186.12
  13  29   3  900.73  139.24
 -13 -29   3  650.91  139.02
  13  29  -3  886.85  139.08
  13 -29  -3  827.80  138.92
  13 -29  -3  894.23  138.74
 -13  29  -3  666.75  139.38
 -13  29  -3  606.13  139.34
  13  31   3    4.91   10.96
 -13 -31  -3   -1.62   10.43
 -13 -31   3   11.95   13.90
  13  31  -3    1.09   10.64
  13 -31  -3   13.77   12.06
  13 -31  -3    8.13    9.78
 -13  31  -3    5.59   14.24
 -13  31  -3   10.02   13.72
 -13 -33  -3   41.56   14.80
  13  33   3   69.20   16.37
 -13 -33   3   64.19   19.55
  13  33  -3   63.05   16.39
  13 -33  -3   66.94   18.92
  13 -33  -3   69.72   16.76
 -13  33  -3   62.54   19.35
 -13  33  -3   58.53   19.22
  13  35   3   49.90   14.10
 -13 -35  -3   56.80   17.69
 -13 -35   3   79.62   18.81
  13  35  -3   48.51   15.54
  13  35  -3   56.76   15.44
  13 -35  -3   72.08   19.11
 -13  35  -3   60.95   19.76
 -13  35  -3   72.42   19.95
  13  37   3  245.57   39.01
 -13 -37  -3  108.07   39.18
 -13 -37   3  146.76   39.58
  13  37  -3  290.96   39.94
  13  37  -3  278.31   39.23
  13 -37  -3  206.17   39.50
 -13  37  -3  143.12   39.66
 -13  37  -3  158.09   40.45
 -13 -39  -3  640.22   99.79
  13  39   3  712.59  129.17
 -13 -39   3  702.68  129.68
  13  39  -3  834.97  129.75
  13  39  -3  683.89  129.05
  13 -39  -3  581.66  129.30
  13 -39  -3  880.97  130.43
 -13  39  -3  658.73  129.40
 -13  39  -3  773.24  130.14
  13  41   3 1072.79  190.32
 -13 -41  -3 1061.62  190.64
  13  41  -3 1112.65  190.58
  13  41  -3 1120.91  190.28
  13 -41  -3  782.94  189.99
  13 -41  -3 1276.82  191.46
 -13  41  -3  982.55  190.22
 -13  41  -3 1123.58  191.03
  13  43   3  164.43   33.33
 -13 -43  -3  176.27   33.76
  13  43  -3  165.02   33.63
  13  43  -3  155.03   33.48
  13 -43  -3  109.02   33.08
  13 -43  -3  161.98   35.60
 -13  43  -3  175.17   34.44
 -13  43  -3  170.10   35.94
 -13 -45  -3   58.79   17.26
  13  45   3   74.28   20.03
  13  45  -3   58.08   22.14
  13  45  -3   78.92   21.34
  13 -45  -3   55.78   22.97
  13 -45  -3   67.55   23.79
 -13  45  -3   80.67   23.29
 -13  45  -3   74.47   23.23
  13  47   3  148.09   35.15
 -13 -47  -3  157.23   35.24
  13  47  -3  174.94   35.32
  13  47  -3  165.29   35.51
  13 -47  -3  160.62   37.43
  13 -47  -3  159.16   38.26
 -13  47  -3  176.90   37.54
 -13  47  -3  181.32   37.57
  15   1   3  199.11   36.58
 -15  -1  -3  162.11   36.30
 -15  -1   3  180.58   36.60
  15   1  -3  221.60   36.65
  15   3   3  153.78   24.11
 -15  -3  -3   90.96   23.54
 -15  -3   3   78.72   23.82
  15   3  -3  130.57   23.75
  15   5   3 1664.79  248.57
 -15  -5  -3 1146.81  248.18
 -15  -5   3 1236.40  248.34
  15   5  -3 1526.15  248.16
  15   7   3 2901.53  428.85
 -15  -7  -3 2166.03  428.50
 -15  -7   3 2724.34  428.97
  15   7  -3 2215.89  428.37
 -15   7  -3 2243.08  428.00
  15   9   3  230.23   40.28
 -15  -9  -3  182.16   39.69
 -15  -9   3  235.49   40.79
  15   9  -3  228.62   39.78
 -15   9  -3  189.92   38.96
 -15   9  -3  204.94   38.92
  15  11   3  296.98   59.09
 -15 -11  -3  274.75   58.77
 -15 -11   3  399.33   59.70
  15  11  -3  302.30   58.82
 -15  11  -3  292.81   58.17
 -15  11  -3  370.94   58.44
  15  13   3  155.14   25.22
 -15 -13  -3  109.13   24.42
 -15 -13   3  103.72   24.61
  15  13  -3  113.66   24.16
 -15  13  -3  115.24   23.47
 -15  13  -3  127.50   23.85
  15  15   3  431.73   80.65
 -15 -15  -3  416.01   80.39
 -15 -15   3  505.45   80.86
  15  15  -3  361.73   80.10
 -15  15  -3  472.79   80.05
 -15  15  -3  510.08   80.31
  15  17   3  513.48   57.53
 -15 -17  -3  189.05   56.17
 -15 -17   3  245.84   56.87
  15  17  -3  465.03   56.67
 -15  17  -3  193.30   55.98
 -15  17  -3  218.61   56.19
  15  19   3   74.95   19.67
 -15 -19  -3   78.16   18.25
 -15 -19   3  100.14   19.30
  15  19  -3   55.81   17.89
 -15  19  -3   96.76   17.32
  15  21   3   65.15   14.66
 -15 -21  -3   16.74   12.53
 -15 -21   3   42.81   16.35
  15  21  -3   47.54   12.52
 -15  21  -3   25.55   11.24
 -15  21  -3   34.99   12.15
  15  23   3   44.30   13.93
 -15 -23  -3   47.92   14.29
 -15 -23   3   52.83   16.25
  15  23  -3   50.06   14.03
  15 -23  -3   46.84   11.99
  15 -23  -3   45.54   12.09
 -15  23  -3   45.05   13.03
 -15  23  -3   51.79   12.85
  15  25   3  116.39   23.61
 -15 -25  -3   70.57   23.01
 -15 -25   3  104.56   24.96
  15  25  -3  128.09   23.79
  15 -25  -3  126.89   22.57
  15 -25  -3  124.62   22.66
 -15  25  -3   97.01   23.90
 -15  25  -3  126.17   24.50
  15  27   3 1127.44  187.97
 -15 -27  -3  813.65  187.64
 -15 -27   3  933.31  188.04
  15  27  -3 1243.56  188.00
  15 -27  -3 1200.58  187.59
 -15  27  -3  989.05  188.24
  15  29   3 1000.59  218.11
 -15 -29  -3 1179.52  218.23
 -15 -29   3 1396.15  218.52
  15  29  -3 1147.04  218.24
  15 -29  -3 1003.19  217.93
  15 -29  -3 1167.18  217.90
 -15  29  -3 1365.53  218.24
 -15  29  -3 1539.93  218.81
  15  31   3  330.93   61.10
 -15 -31  -3  280.21   60.76
 -15 -31   3  347.47   61.72
  15  31  -3  349.99   61.03
  15 -31  -3  327.02   60.76
 -15  31  -3  315.46   60.96
 -15  31  -3  349.38   62.47
  15  33   3   19.01   12.57
 -15 -33  -3   25.46   12.21
 -15 -33   3   41.93   16.16
  15  33  -3   26.57   13.11
  15 -33  -3   30.98   14.92
  15 -33  -3   18.76   13.28
 -15  33  -3   36.55   14.20
 -15  33  -3   29.79   15.39
  15  35   3   24.43   12.10
 -15 -35  -3   36.06   12.93
 -15 -35   3   41.68   16.19
  15  35  -3   25.55   12.48
  15 -35  -3   21.53   15.73
  15 -35  -3   22.76   14.23
 -15  35  -3   28.90   14.70
 -15  35  -3   32.73   16.16
  15  37   3   88.18   20.66
 -15 -37  -3   95.09   21.72
 -15 -37   3   84.82   22.76
  15  37  -3   95.01   20.15
  15  37  -3   76.49   19.77
  15 -37  -3   60.32   21.63
  15 -37  -3  114.43   24.47
 -15  37  -3   97.44   22.67
 -15  37  -3   88.73   23.62
 -15 -39  -3  275.61   45.22
  15  39   3  282.33   56.20
 -15 -39   3  303.93   56.60
  15  39  -3  331.39   56.37
  15  39  -3  291.43   55.53
  15 -39  -3  195.97   55.29
  15 -39  -3  332.04   56.80
 -15  39  -3  318.68   56.65
 -15  39  -3  327.35   58.61
  15  41   3  451.27   63.05
 -15 -41  -3  371.97   80.11
  15  41  -3  489.23   80.57
  15  41  -3  511.24   80.15
  15 -41  -3  277.03   80.12
  15 -41  -3  471.76   81.87
 -15  41  -3  432.78   81.50
 -15  41  -3  451.49   81.48
  15  43   3   99.80   23.72
  15  43  -3  114.02   24.48
  15  43  -3  115.37   24.02
  15 -43  -3   94.62   25.96
 -15  43  -3   81.76   25.70
 -15  43  -3   84.39   27.24
  15  45   3   14.90   14.11
 -15 -45  -3   14.87   14.08
  15  45  -3   13.06   15.05
  15  45  -3   29.73   15.88
  15 -45  -3   24.57   21.86
 -15  45  -3   26.35   20.16
 -15  45  -3   33.29   19.24
  15  47   3   25.41   17.08
 -15 -47  -3   26.75   15.83
  15  47  -3   45.12   17.52
  15  47  -3   49.03   18.31
  15 -47  -3   31.16   24.59
 -15  47  -3   22.57   21.37
 -15  47  -3   39.39   21.12
  17   1   3   47.59   14.44
 -17  -1  -3   66.11   13.92
 -17  -1   3   64.87   14.61
  17   1  -3   40.51   14.32
  17   3   3   82.70   15.31
 -17  -3   3   70.33   16.18
 -17  -3  -3   72.63   17.42
  17   3  -3   76.57   17.62
  17   5  -3  782.44  140.45
  17   5   3  871.42  186.41
 -17  -5  -3 1145.19  186.58
 -17  -5   3 1411.72  186.90
  17   7   3 1450.15  212.44
 -17  -7  -3  908.97  211.96
 -17  -7   3 1098.52  212.43
  17   7  -3 1301.97  212.11
  17   9   3  229.79   38.06
 -17  -9  -3  165.79   37.25
 -17  -9   3  211.09   38.45
  17   9  -3  206.77   37.45
 -17   9  -3  153.48   36.32
 -17   9  -3  220.22   36.46
  17  11  -3   42.98   10.80
  17  11   3   51.57   13.21
 -17 -11  -3   45.58   12.57
 -17 -11   3   29.89   14.92
 -17  11  -3   37.55   10.58
 -17  11  -3   36.46   10.97
  17  13   3   19.92   10.57
 -17 -13  -3    5.17    9.78
 -17 -13   3   14.50   11.49
  17  13  -3   23.12    9.81
 -17  13  -3   13.73    7.25
 -17  13  -3    7.59    8.01
  17  15   3  234.03   45.74
 -17 -15  -3  249.85   45.43
 -17 -15   3  223.58   45.70
  17  15  -3  251.58   45.13
 -17  15  -3  248.53   44.92
  17  17   3 1106.37  172.97
 -17 -17  -3  808.73  172.51
 -17 -17   3 1058.58  173.07
  17  17  -3  971.78  172.46
 -17  17  -3  950.68  172.45
 -17  17  -3  943.57  172.48
  17  19   3  809.17  124.65
 -17 -19  -3  638.25  123.98
 -17 -19   3  698.62  124.45
  17  19  -3  715.93  123.94
 -17  19  -3  696.82  123.95
 -17  19  -3  600.49  123.70
  17  21   3   46.70   14.80
 -17 -21  -3   26.35   12.51
 -17 -21   3   38.07   14.39
  17  21  -3   44.55   12.55
 -17  21  -3   30.23   12.14
  17  23   3  174.32   31.26
 -17 -23  -3  197.72   38.01
 -17 -23   3  218.76   39.01
  17  23  -3  185.33   37.76
 -17  23  -3  218.98   38.05
 -17  23  -3  182.76   37.30
 -17 -25  -3   59.38   14.59
  17  25   3   67.65   16.44
 -17 -25   3   64.70   18.76
  17  25  -3   74.18   16.79
  17 -25  -3   50.69   14.60
  17 -25  -3   65.04   15.28
 -17  25  -3   65.49   16.97
 -17  25  -3   61.65   17.25
  17  27   3 1419.98  267.87
 -17 -27  -3 1496.57  267.98
 -17 -27   3 1652.88  268.35
  17  27  -3 1579.20  267.99
  17 -27  -3 1233.72  267.40
  17 -27  -3 1495.12  267.52
 -17  27  -3 1543.61  267.93
 -17  27  -3 1661.54  268.37
  17  29   3 1354.47  201.20
 -17 -29  -3  791.89  200.64
 -17 -29   3  931.20  200.92
  17  29  -3 1472.33  201.22
  17 -29  -3 1342.71  200.86
 -17  29  -3 1006.04  200.87
 -17  29  -3  963.73  201.04
  17  31   3  135.11   31.10
 -17 -31  -3  116.25   30.46
 -17 -31   3  178.07   32.00
  17  31  -3  163.01   30.96
  17 -31  -3  159.94   31.68
  17 -31  -3  160.73   30.88
 -17  31  -3  134.63   31.59
 -17  31  -3  173.94   32.06
  17  33   3  160.11   32.33
 -17 -33  -3  129.37   31.70
 -17 -33   3  165.58   33.65
  17  33  -3  176.78   32.25
  17 -33  -3  172.03   32.48
 -17  33  -3  143.21   33.07
 -17  33  -3  159.73   33.19
  17  35   3   69.00   16.07
 -17 -35  -3   73.88   18.75
 -17 -35   3   82.88   22.07
  17  35  -3   79.33   19.56
  17 -35  -3   79.21   22.33
  17 -35  -3   77.52   20.60
 -17  35  -3   71.61   20.98
 -17  35  -3   71.14   21.02
  17  37   3  232.02   39.79
 -17 -37  -3  166.54   39.63
 -17 -37   3  189.85   40.01
  17  37  -3  236.04   39.55
  17  37  -3  198.98   38.31
  17 -37  -3  144.49   38.34
  17 -37  -3  241.99   40.85
 -17  37  -3  191.48   40.30
 -17  37  -3  169.24   40.17
 -17 -39  -3  203.25   43.16
  17  39   3  414.72   54.17
 -17 -39   3  226.73   53.65
  17  39  -3  380.69   53.58
  17  39  -3  326.25   52.67
  17 -39  -3  177.57   53.14
  17 -39  -3  355.14   55.29
 -17  39  -3  216.11   53.84
 -17  39  -3  180.38   53.88
  17  41   3  313.68   68.92
 -17 -41  -3  404.01   69.85
 -17 -41   3  412.98   70.48
  17  41  -3  351.32   69.18
  17  41  -3  317.08   68.58
  17 -41  -3  310.85   70.33
 -17  41  -3  467.91   70.34
 -17  41  -3  393.94   71.44
  17  43   3  102.51   22.22
 -17 -43  -3   98.40   23.62
  17  43  -3  106.26   22.72
  17  43  -3   94.49   21.72
  17 -43  -3   49.22   25.27
  17 -43  -3   77.28   24.52
 -17  43  -3   78.65   25.57
 -17  43  -3   76.11   25.51
  17  45   3   24.59   16.09
 -17 -45  -3   54.10   17.64
  17  45  -3   51.71   17.30
  17  45  -3   49.89   16.58
  17 -45  -3   30.03   22.11
  17 -45  -3   29.11   24.15
 -17  45  -3   50.22   21.75
 -17  45  -3   39.65   21.69
  19   1   3   57.94   14.06
 -19  -1  -3   36.58   13.25
 -19  -1   3   38.76   14.11
  19   1  -3   58.23   14.09
  19   3   3    2.14   10.01
 -19  -3  -3   30.98    9.55
 -19  -3   3   23.47   10.67
  19   3  -3    0.72   10.27
  19   5   3  770.63  107.82
 -19  -5  -3  340.54  107.25
 -19  -5   3  474.63  108.12
  19   5  -3  774.13  108.11
 -19  -7  -3  620.92  125.79
 -19  -7   3  931.66  127.03
  19   7  -3  621.30  125.91
 -19  -9  -3   10.76    7.89
  19   9   3   22.79   11.42
 -19  -9   3   11.89   12.83
  19   9  -3   21.14   10.16
 -19   9  -3    7.57    6.33
  19  11   3  171.19   34.19
 -19 -11  -3  166.10   33.76
 -19 -11   3  190.94   35.17
  19  11  -3  164.33   33.86
 -19  11  -3  185.40   32.95
  19  13   3   34.35   11.68
 -19 -13  -3   18.79   10.71
 -19 -13   3   22.05   12.53
  19  13  -3   24.23   11.35
 -19  13  -3   20.34    8.02
 -19  13  -3   12.72    7.79
  19  15   3 1239.07  194.40
 -19 -15  -3  971.93  194.08
 -19 -15   3 1051.78  194.34
  19  15  -3 1141.69  193.99
 -19  15  -3 1039.74  193.80
 -19 -17   3 1855.42  256.44
  19  17   3 2306.66  343.54
 -19 -17  -3 1715.47  343.19
  19  17  -3 2045.09  343.08
 -19  17  -3 1920.77  342.98
 -19  17  -3 1762.68  342.99
  19  19   3  875.90  144.11
 -19 -19  -3  754.45  143.62
 -19 -19   3  876.54  144.17
  19  19  -3  807.03  143.48
 -19  19  -3  711.65  143.32
  19  21   3   44.17   12.13
 -19 -21  -3   32.16   12.45
 -19 -21   3   29.25   13.87
  19  21  -3   23.59   12.11
 -19  21  -3   38.61   12.57
 -19  21  -3   38.37   12.02
  19  23   3   30.80   13.75
 -19 -23  -3   19.74   11.82
 -19 -23   3   24.97   14.30
  19  23  -3   37.88   11.78
 -19  23  -3   14.82   10.47
 -19  23  -3   18.93   11.34
  19  25   3  217.64   41.27
 -19 -25  -3  174.08   41.23
 -19 -25   3  212.06   42.32
  19  25  -3  280.92   41.69
 -19  25  -3  219.94   41.30
 -19  25  -3  181.12   42.02
  19  27   3  693.89  124.61
 -19 -27  -3  592.26  124.59
 -19 -27   3  690.12  125.03
  19  27  -3  873.57  124.96
  19 -27  -3  570.39  123.82
  19 -27  -3  691.45  124.09
 -19  27  -3  692.78  124.71
 -19  27  -3  732.10  124.92
  19  29   3  335.02   78.32
 -19 -29  -3  549.47   79.14
 -19 -29   3  518.36   79.23
  19  29  -3  321.80   78.39
  19 -29  -3  244.17   77.82
  19 -29  -3  303.11   78.11
 -19  29  -3  604.49   79.91
 -19  29  -3  558.90   79.95
  19  31   3  145.99   32.59
 -19 -31  -3  135.56   32.55
 -19 -31   3  165.19   32.89
  19  31  -3  188.11   32.63
  19 -31  -3  139.21   32.73
 -19  31  -3  197.58   35.01
 -19  31  -3  148.31   34.64
  19  33   3   14.13   12.12
 -19 -33  -3   14.55   10.91
 -19 -33   3   17.11   15.19
  19  33  -3    7.40   11.70
  19 -33  -3   -7.19   14.80
  19 -33  -3   18.15   14.73
 -19  33  -3    4.92   14.24
 -19  33  -3   24.78   17.05
  19  35   3  133.17   28.63
 -19 -35  -3  151.87   28.34
 -19 -35   3  148.44   30.57
  19  35  -3  140.07   28.47
  19 -35  -3   98.95   29.14
  19 -35  -3  103.66   29.17
 -19  35  -3  155.95   30.08
 -19  35  -3  136.44   31.65
  19  37   3   51.66   18.85
 -19 -37  -3   54.48   18.68
 -19 -37   3   69.58   20.58
  19  37  -3   69.02   17.93
  19 -37  -3   50.00   20.07
  19 -37  -3   45.27   20.15
 -19  37  -3   74.95   20.26
 -19  37  -3   76.57   20.44
  19  39   3   55.75   28.27
 -19 -39  -3  173.45   29.56
 -19 -39   3  192.79   30.63
  19  39  -3   91.70   29.68
  19  39  -3   67.97   27.40
  19 -39  -3   60.09   30.24
 -19  39  -3  199.72   30.81
 -19  39  -3  213.62   31.23
  19  41   3  145.93   24.73
 -19 -41  -3   51.80   23.84
 -19 -41   3   54.74   22.01
  19  41  -3  158.04   26.32
  19  41  -3  122.14   23.26
  19 -41  -3   60.71   25.58
  19 -41  -3  125.24   28.20
 -19  41  -3   70.81   25.37
 -19  41  -3   51.86   25.20
  19  43   3   15.26   13.32
 -19 -43  -3    7.55   15.01
  19  43  -3   14.38   14.98
  19  43  -3    3.44   12.70
  19 -43  -3   16.58   19.23
  19 -43  -3    9.36   21.52
 -19  43  -3   18.17   18.81
 -19  43  -3    4.28   18.95
  19  45   3   -0.28   13.50
 -19 -45  -3    8.51   15.71
  19  45  -3   12.81   15.70
  19  45  -3   19.31   13.69
  19 -45  -3   -2.66   20.92
  19 -45  -3  -12.14   24.10
 -19  45  -3    7.30   19.34
 -19  45  -3   -0.11   19.76
  21   1   3   40.95   13.75
 -21  -1  -3   57.42   13.49
 -21  -1   3   61.80   14.44
  21   1  -3   29.61   13.79
  21   3   3    3.68   10.96
 -21  -3  -3   36.27   10.82
 -21  -3   3   52.27   12.04
  21   3  -3    9.41   11.21
  21   5   3   56.22   23.00
 -21  -5  -3  155.10   23.57
 -21  -5   3  199.73   25.29
  21   5  -3   49.96   23.18
  21   7   3   84.06   18.34
 -21  -7  -3   58.23   17.33
 -21  -7   3   64.80   19.65
  21   7  -3   79.69   18.18
 -21  -9   3   98.50   21.23
  21   9   3  117.48   22.07
 -21  -9  -3   51.67   20.86
  21   9  -3  119.54   21.34
  21  11   3   26.87   13.03
 -21 -11  -3   42.50   12.85
 -21 -11   3   48.60   15.75
  21  11  -3   38.55   13.07
 -21  11  -3   39.18   10.11
  21  13  -3   62.94   13.43
  21  13   3   97.10   16.40
 -21 -13  -3   38.10   15.11
 -21 -13   3   48.78   16.62
 -21  13  -3   41.68   13.03
  21  15   3  920.47  150.36
 -21 -15  -3  786.13  150.11
 -21 -15   3  951.53  150.50
  21  15  -3  694.54  149.78
 -21  15  -3  876.31  149.68
 -21  15  -3  851.33  149.70
  21  17   3 2684.48  428.19
 -21 -17  -3 2243.79  428.03
 -21 -17   3 2408.21  428.28
  21  17  -3 2542.21  427.84
 -21  17  -3 2200.13  427.67
  21  19   3 2033.74  328.86
 -21 -19  -3 1641.72  328.57
 -21 -19   3 1979.74  329.01
  21  19  -3 2043.92  328.48
 -21  19  -3 1900.03  328.46
 -21  19  -3 1484.22  328.31
  21  21   3   54.90   13.84
 -21 -21  -3   30.96   14.10
 -21 -21   3   40.00   15.63
  21  21  -3   78.49   14.29
 -21  21  -3   45.20   14.78
 -21  21  -3   30.99   13.54
  21  23   3  211.01   38.01
 -21 -23  -3  151.82   36.78
 -21 -23   3  204.48   38.32
  21  23  -3  202.04   36.94
 -21  23  -3  193.98   37.41
 -21  23  -3  177.73   37.72
  21  25   3   75.80   18.44
 -21 -25  -3   61.29   17.81
 -21 -25   3   69.01   19.81
  21  25  -3   70.14   17.72
 -21  25  -3   73.70   18.94
 -21  25  -3   63.07   17.97
  21  27   3  625.21   87.25
 -21 -27  -3  547.02  113.64
 -21 -27   3  658.15  114.29
  21  27  -3  723.58  113.97
 -21  27  -3  668.63  114.06
 -21  27  -3  555.24  114.17
 -21 -29   3  332.85   51.90
  21  29   3  419.31   65.10
 -21 -29  -3  286.21   65.01
  21  29  -3  459.03   65.44
  21 -29  -3  308.88   64.28
 -21  29  -3  349.86   65.13
 -21  29  -3  283.38   65.29
  21  31   3    2.01    8.39
 -21 -31  -3    0.32   11.98
 -21 -31   3   11.32   12.42
  21  31  -3    0.41   11.57
  21 -31  -3   13.71   12.66
  21 -31  -3   -1.09   11.21
 -21  31  -3   -2.68   12.97
 -21  31  -3    3.23   13.18
  21  33   3   78.00   20.29
 -21 -33  -3   70.72   20.59
 -21 -33   3   88.25   22.49
  21  33  -3   97.46   20.45
  21 -33  -3   75.36   21.44
  21 -33  -3   62.33   21.53
 -21  33  -3   95.81   21.58
 -21  33  -3   70.45   21.62
  21  35   3   26.79   12.00
 -21 -35  -3   23.83   14.93
 -21 -35   3   12.49   16.70
  21  35  -3   21.19   13.33
  21 -35  -3   18.81   16.85
  21 -35  -3   31.98   18.17
 -21  35  -3   21.54   15.16
 -21  35  -3   15.51   15.86
  21  37   3  237.58   38.40
 -21 -37  -3  229.79   47.35
 -21 -37   3  256.80   48.69
  21  37  -3  262.71   47.93
  21 -37  -3  217.64   49.74
 -21  37  -3  251.89   47.75
 -21  37  -3  229.88   49.43
  21  39   3  181.12   28.60
 -21 -39  -3   61.26   27.56
 -21 -39   3   48.18   28.32
  21  39  -3  224.66   30.18
  21  39  -3  158.55   27.50
  21 -39  -3  133.82   27.67
 -21  39  -3   80.68   28.33
 -21  39  -3   63.41   29.04
 -21 -41   3  119.48   22.01
  21  41   3   73.80   23.73
 -21 -41  -3  129.49   24.84
  21  41  -3   94.39   25.34
  21  41  -3   70.65   22.46
  21 -41  -3   32.29   25.31
  21 -41  -3   67.07   23.63
 -21  41  -3  142.02   28.15
 -21  41  -3  119.12   26.60
  21  43   3  175.66   31.75
 -21 -43  -3  154.28   32.33
 -21 -43   3  123.87   32.65
  21  43  -3  208.54   32.74
  21  43  -3  167.43   30.91
  21 -43  -3   29.92   33.40
  21 -43  -3  129.23   32.67
 -21  43  -3  132.74   34.24
 -21  43  -3  151.07   34.91
  23   1   3   37.03   13.40
 -23  -1  -3   41.77   13.31
 -23  -1   3   64.05   14.47
  23   1  -3   28.23   13.62
  23   3   3  191.19   40.83
 -23  -3  -3  218.99   40.81
 -23  -3   3  246.91   41.45
  23   3  -3  206.00   40.81
  23   5   3  230.36   46.81
 -23  -5  -3  285.60   46.86
 -23  -5   3  280.10   47.37
  23   5  -3  207.52   46.51
  23   7   3  306.57   40.39
 -23  -7  -3  117.09   39.38
 -23  -7   3  106.59   39.76
  23   7  -3  258.17   39.44
  23   9   3   78.43   18.20
 -23  -9  -3   64.45   17.38
 -23  -9   3   65.90   20.17
  23   9  -3   71.66   17.11
  23  11   3  216.07   36.20
 -23 -11  -3  162.78   35.81
 -23 -11   3  197.96   37.23
  23  11  -3  199.42   35.91
 -23  11  -3  164.47   34.70
 -23  11  -3  160.79   34.59
  23  13   3   13.62    8.86
  23  13  -3   15.65    8.74
 -23 -13  -3   13.73   10.72
 -23 -13   3   12.74   12.47
 -23  13  -3   14.09    8.20
 -23  13  -3   14.22    7.58
  23  15   3 1643.24  262.15
 -23 -15  -3 1193.51  261.73
 -23 -15   3 1444.19  262.13
  23  15  -3 1728.02  261.96
 -23  15  -3 1346.95  261.46
  23  17   3 2300.61  372.60
 -23 -17  -3 2049.62  372.49
 -23 -17   3 2231.83  372.79
  23  17  -3 2138.83  372.29
 -23  17  -3 1784.40  372.10
  23  19   3 1016.88  158.24
 -23 -19  -3  884.76  158.07
 -23 -19   3  940.29  158.42
  23  19  -3  910.91  157.71
 -23  19  -3  792.12  157.54
 -23  19  -3  739.46  157.67
  23  21   3  253.01   43.38
 -23 -21  -3  226.78   42.56
 -23 -21   3  247.26   43.30
  23  21  -3  220.37   42.14
 -23  21  -3  213.45   42.07
 -23  21  -3  166.64   41.67
  23  23   3   58.24   16.55
 -23 -23  -3   43.51   14.36
 -23 -23   3   42.81   16.93
  23  23  -3   48.38   14.07
 -23  23  -3   41.44   12.61
 -23  23  -3   31.84   14.17
  23  25   3  221.62   37.33
 -23 -25  -3  149.68   36.17
 -23 -25   3  189.19   37.77
  23  25  -3  200.65   36.33
 -23  25  -3  195.85   37.26
 -23  25  -3  147.93   37.30
  23  27   3   84.40   22.47
 -23 -27  -3  124.64   23.02
 -23 -27   3  181.36   29.40
  23  27  -3  105.75   27.17
 -23  27  -3  149.69   28.65
 -23  27  -3  132.63   27.73
  23  29   3  258.59   33.64
 -23 -29  -3  108.20   33.05
 -23 -29   3  126.24   33.71
  23  29  -3  267.34   34.13
 -23  29  -3  114.57   33.25
 -23  29  -3   95.33   33.49
  23  31   3  177.46   30.94
 -23 -31  -3  181.94   38.05
 -23 -31   3  199.20   38.24
  23  31  -3  248.26   38.29
  23 -31  -3  104.99   37.14
  23 -31  -3  157.41   36.93
 -23  31  -3  257.66   39.79
 -23  31  -3  185.09   38.63
  23  33   3    9.17   10.86
 -23 -33  -3   12.54   14.29
 -23 -33   3    7.85   14.38
  23  33  -3    5.72   12.54
  23 -33  -3    7.32   13.82
  23 -33  -3   12.08   14.82
 -23  33  -3   10.47   13.59
 -23  33  -3   14.57   14.60
  23  35   3  105.74   24.34
 -23 -35  -3  128.63   26.76
 -23 -35   3  112.17   27.76
  23  35  -3  144.90   27.47
  23 -35  -3   82.98   26.33
  23 -35  -3  101.57   27.97
 -23  35  -3  119.69   26.40
 -23  35  -3   87.16   27.01
  23  37   3  111.14   22.18
 -23 -37  -3  118.83   23.78
 -23 -37   3  117.81   29.44
  23  37  -3  154.45   28.73
  23 -37  -3   87.81   28.72
  23 -37  -3  123.72   30.90
 -23  37  -3  124.48   27.99
 -23  37  -3  103.98   30.84
  23  39  -3   71.67   23.47
  23  39   3   75.88   27.14
 -23 -39  -3  176.00   28.97
 -23 -39   3  195.69   30.22
  23 -39  -3   33.66   29.69
  23 -39  -3   62.84   30.58
 -23  39  -3  182.53   29.15
 -23  39  -3  152.28   29.95
  23  41  -3   61.41   14.43
  23  41   3   67.15   18.51
 -23 -41  -3   35.42   18.82
 -23 -41   3   31.25   19.72
  23  41  -3   82.22   20.76
  23 -41  -3   29.61   20.86
  23 -41  -3   64.07   25.74
 -23  41  -3   31.03   19.23
 -23  41  -3   21.44   20.59
  25   1  -3   63.34   14.54
  25   1   3   57.07   16.85
 -25  -1  -3   62.69   17.17
 -25  -1   3   80.39   17.66
  25   3   3  551.47   85.72
 -25  -3  -3  450.37   85.55
 -25  -3   3  439.60   85.72
  25   3  -3  441.35   85.45
  25   5   3  597.14   84.06
 -25  -5  -3  294.24   83.35
 -25  -5   3  380.84   83.79
  25   5  -3  543.11   83.63
  25   7   3   83.58   28.02
 -25  -7  -3  195.30   28.46
 -25  -7   3  216.93   29.18
  25   7  -3   74.77   27.03
  25   9   3   10.15    9.68
 -25  -9  -3   31.17   12.00
 -25  -9   3   29.15   15.59
  25   9  -3   13.64   10.33
  25  11   3   53.25   16.95
 -25 -11  -3   71.32   16.77
 -25 -11   3   73.30   19.26
  25  11  -3   61.46   16.43
 -25  11  -3   54.37   13.80
  25  13  -3  110.61   19.49
  25  13   3  131.62   23.49
 -25 -13  -3   88.07   22.75
 -25 -13   3  102.29   23.94
 -25  13  -3   88.60   21.84
  25  15   3  750.16  135.23
 -25 -15  -3  715.33  135.05
 -25 -15   3  862.76  135.53
  25  15  -3  738.30  135.07
 -25  15  -3  845.05  134.72
 -25  15  -3  615.68  134.54
  25  17   3 1416.09  214.92
 -25 -17  -3 1105.53  214.59
 -25 -17   3 1250.52  214.98
  25  17  -3 1351.61  214.58
 -25  17  -3 1209.58  214.44
 -25  17  -3  846.25  214.14
  25  19   3  545.63   95.25
 -25 -19  -3  555.54   95.29
 -25 -19   3  558.34   95.62
  25  19  -3  519.86   94.78
 -25  19  -3  640.82   95.07
 -25  19  -3  301.63   94.43
  25  21   3   19.94   13.10
 -25 -21  -3   21.17   11.96
 -25 -21   3   17.99   13.27
  25  21  -3   13.66   10.96
 -25  21  -3   27.39   12.64
 -25  21  -3    9.48   10.48
  25  23   3  179.85   30.27
 -25 -23  -3  125.31   28.98
 -25 -23   3  141.93   30.00
  25  23  -3  170.27   28.60
 -25  23  -3  136.37   29.84
 -25  23  -3   69.15   29.19
  25  25  -3   34.85   10.67
  25  25   3   33.70   15.05
 -25 -25  -3   22.70   13.12
 -25 -25   3   32.92   16.18
 -25  25  -3   36.88   15.76
 -25  25  -3   14.76   13.15
 -25 -27  -3  147.35   36.77
  25  27   3  342.67   46.30
 -25 -27   3  159.55   46.63
  25  27  -3  433.59   46.61
 -25  27  -3  210.85   46.83
 -25  27  -3   99.42   45.41
  25  29   3  538.35  121.49
 -25 -29  -3  657.31  121.91
 -25 -29   3  751.93  122.46
  25  29  -3  709.86  121.93
 -25  29  -3  906.06  123.03
 -25  29  -3  492.62  121.77
  25  31   3  276.99   54.02
 -25 -31  -3  301.37   54.43
 -25 -31   3  271.72   54.16
  25  31  -3  326.01   54.04
 -25  31  -3  300.78   54.60
 -25  31  -3  217.62   54.07
  25  33   3    9.90   10.70
 -25 -33  -3   -3.95   14.20
 -25 -33   3   11.66   13.95
  25  33  -3    9.56   15.51
  25 -33  -3    9.38   13.29
 -25  33  -3    2.92   14.61
 -25  33  -3    0.48   14.48
  25  35   3    4.39   11.17
 -25 -35  -3   16.21   15.11
 -25 -35   3   13.10   17.17
  25  35  -3    3.55   15.90
  25 -35  -3    6.61   14.76
  25 -35  -3   15.46   16.59
 -25  35  -3   12.51   15.64
 -25  35  -3   13.26   15.91
 -25 -37  -3  257.34   36.80
  25  37   3  185.79   42.60
 -25 -37   3  293.30   45.70
  25  37  -3  240.69   44.84
  25 -37  -3  130.71   44.13
  25 -37  -3  157.62   45.66
 -25  37  -3  275.78   46.61
 -25  37  -3  210.57   46.57
  25  39   3  213.26   43.54
 -25 -39  -3  216.47   44.35
 -25 -39   3  201.56   45.00
  25  39  -3  296.07   45.16
  25 -39  -3  187.71   45.74
 -25  39  -3  224.91   46.50
 -25  39  -3  169.13   44.90
  25  41   3   71.41   20.04
 -25 -41  -3   38.78   21.02
 -25 -41   3   43.35   21.35
  25  41  -3   96.52   22.60
  25  41  -3   64.51   18.17
  25 -41  -3   47.15   25.45
  25 -41  -3   58.11   27.97
 -25  41  -3   31.34   27.04
 -25  41  -3   58.80   27.99
  27   1   3   35.20   13.83
 -27  -1  -3   53.43   14.96
 -27  -1   3   48.77   14.89
  27   1  -3   37.42   14.54
  27   3   3  565.23  101.21
 -27  -3  -3  543.51  101.31
 -27  -3   3  549.10  101.39
  27   3  -3  576.65  101.14
  27   5   3 1282.59  245.20
 -27  -5  -3 1410.55  245.38
 -27  -5   3 1476.78  245.62
  27   5  -3 1370.32  245.11
  27   7   3  663.15   91.69
 -27  -7  -3  309.58   90.84
 -27  -7   3  396.22   91.36
  27   7  -3  591.83   91.10
  27   9   3   45.10   13.98
 -27  -9  -3   21.43   13.27
 -27  -9   3   17.00   16.52
  27   9  -3   36.65   12.06
  27  11   3   79.89   18.81
 -27 -11  -3   59.28   18.51
 -27 -11   3   67.29   20.56
  27  11  -3   83.12   18.00
 -27 -13  -3    0.61    7.90
  27  13   3    8.94   11.07
 -27 -13   3    1.98   13.02
  27  13  -3    6.47   11.16
 -27  13  -3   -0.18    7.06
 -27  13  -3    0.99    6.67
 -27 -15  -3  338.16   53.08
  27  15   3  541.71   68.24
 -27 -15   3  340.35   67.79
 -27  15  -3  358.07   67.16
 -27  15  -3  235.69   66.63
  27  17  -3  525.15   74.32
  27  17   3  556.73   96.50
 -27 -17  -3  580.83   96.45
 -27 -17   3  680.40   97.03
 -27  17  -3  642.62   96.14
 -27  17  -3  175.44   95.45
  27  19   3   60.63   15.93
 -27 -19  -3   50.33   15.60
 -27 -19   3   48.72   16.62
  27  19  -3   67.73   14.95
 -27  19  -3   51.43   14.84
 -27  19  -3    6.29   13.23
  27  21   3  160.92   22.61
 -27 -21  -3  149.23   26.44
 -27 -21   3  128.79   27.00
  27  21  -3  137.85   25.49
 -27  21  -3  127.38   26.52
 -27  21  -3    3.27   24.35
 -27 -23  -3   28.81   10.45
  27  23   3   17.94   14.52
 -27 -23   3   28.05   14.65
  27  23  -3   25.05   11.86
 -27  23  -3   26.22   13.99
 -27  23  -3    3.09   13.80
  27  25   3  106.25   24.88
 -27 -25  -3  137.93   24.34
 -27 -25   3  145.45   25.98
  27  25  -3  107.53   23.22
 -27  25  -3  124.50   24.93
 -27  25  -3    3.36   22.92
  27  27   3   40.24   20.44
 -27 -27  -3  131.81   21.44
 -27 -27   3  149.03   23.67
  27  27  -3   39.53   19.59
 -27  27  -3  138.29   24.97
 -27  27  -3    5.93   20.10
  27  29   3  876.47  125.65
 -27 -29  -3  661.63  125.46
 -27 -29   3  767.71  125.89
  27  29  -3 1006.84  125.96
 -27  29  -3   79.15  124.23
  27  31   3  874.72  125.32
 -27 -31  -3  675.39  125.25
 -27 -31   3  726.25  125.36
  27  31  -3  845.84  125.48
 -27  31  -3  681.61  125.21
 -27  31  -3  295.01  124.45
  27  33   3   51.87   16.72
 -27 -33  -3   55.74   18.86
 -27 -33   3   47.90   18.31
  27  33  -3   49.25   19.09
 -27  33  -3   69.01   21.99
 -27  33  -3   35.09   18.97
  27  35   3   69.92   17.72
 -27 -35  -3   49.31   20.35
 -27 -35   3   69.25   22.13
  27  35  -3   97.16   21.78
 -27  35  -3   49.39   20.94
 -27  35  -3   47.50   24.01
  27  37   3  193.63   38.77
 -27 -37  -3  216.14   40.70
 -27 -37   3  213.79   41.69
  27  37  -3  257.77   41.24
  27 -37  -3  112.24   40.50
 -27  37  -3  205.61   43.17
 -27  37  -3  166.40   41.14
  27  39   3  415.15   63.24
 -27 -39  -3  358.66   64.08
 -27 -39   3  373.99   65.05
  27  39  -3  453.31   64.65
  27 -39  -3  159.87   63.80
  27 -39  -3  305.53   65.24
 -27  39  -3  299.48   64.33
 -27  39  -3  269.86   64.39
  29   1  -3  151.38   24.63
  29   1   3  127.26   28.88
 -29  -1  -3  158.29   29.86
 -29  -1   3  129.12   29.61
  29   3   3 1165.04  211.70
 -29  -3  -3 1103.03  211.93
 -29  -3   3 1076.76  211.84
  29   3  -3 1372.69  211.77
  29   5   3 1847.32  324.50
 -29  -5  -3 1497.87  324.40
 -29  -5   3 1922.19  324.79
  29   5  -3 2021.29  324.48
  29   7   3  148.57   33.59
 -29  -7  -3  188.96   33.49
 -29  -7   3  214.28   35.12
  29   7  -3  127.37   32.74
  29   9   3   57.31   17.15
 -29  -9  -3  103.33   20.16
 -29  -9   3  112.58   23.00
  29   9  -3   66.51   19.24
  29  11   3   34.92   13.52
 -29 -11  -3   18.10   13.46
 -29 -11   3   19.41   16.06
  29  11  -3   38.03   12.17
  29  13   3   94.45   20.50
 -29 -13  -3   96.02   20.81
 -29 -13   3   86.10   20.59
  29  13  -3   93.71   20.35
 -29  13  -3   79.93   18.44
 -29  13  -3   52.87   18.06
 -29 -15   3  134.96   24.00
  29  15   3  184.33   28.42
 -29 -15  -3  117.18   27.87
  29  15  -3  185.06   28.39
 -29  15  -3  122.57   26.79
 -29  15  -3   26.79   25.98
  29  17   3   71.85   20.09
 -29 -17  -3  128.55   18.86
 -29 -17   3  111.67   20.81
  29  17  -3   60.81   19.97
 -29  17  -3  100.42   19.32
 -29  17  -3    7.45   17.41
  29  19   3   48.83   14.95
 -29 -19  -3   28.49   14.21
 -29 -19   3   26.84   15.43
  29  19  -3   74.45   14.85
 -29  19  -3   37.69   13.95
 -29  19  -3   -1.50   12.71
 -29 -21   3  153.52   23.34
  29  21   3  116.42   26.54
 -29 -21  -3  153.65   26.46
  29  21  -3  127.55   25.77
 -29  21  -3  158.42   27.46
 -29  21  -3    0.71   24.26
 -29 -23  -3   41.06   14.43
  29  23   3   91.95   18.62
 -29 -23   3   52.26   18.25
  29  23  -3   83.65   16.19
 -29  23  -3   50.13   19.10
 -29  23  -3   -0.21   17.61
  29  25   3   58.88   17.80
 -29 -25  -3   54.68   18.15
 -29 -25   3   68.11   18.95
  29  25  -3   59.53   15.61
 -29  25  -3   10.12   15.96
  29  27   3  143.36   21.55
 -29 -27  -3   30.98   21.04
 -29 -27   3   27.85   23.35
  29  27  -3  139.82   22.23
 -29  27  -3    9.70   24.06
 -29 -29  -3  571.32   69.06
  29  29   3  490.79   86.93
 -29 -29   3  620.40   87.93
  29  29  -3  512.74   87.11
 -29  29  -3  636.77   88.22
  29  31   3  308.65   45.02
 -29 -31  -3  325.31   56.85
 -29 -31   3  372.78   56.91
  29  31  -3  360.94   56.49
 -29  31  -3  359.89   59.08
 -29  31  -3   10.95   55.04
 -29 -33   3    0.17   10.65
  29  33   3   11.23   12.69
 -29 -33  -3    5.97   15.58
  29  33  -3   17.11   15.75
 -29  33  -3   12.09   22.29
 -29 -35  -3   30.83   13.09
  29  35   3   11.74   12.05
 -29 -35   3   23.45   18.39
  29  35  -3   20.61   16.92
 -29  35  -3    8.56   19.82
 -29  35  -3   15.80   17.37
  29  37   3   91.02   26.68
 -29 -37  -3  148.02   29.89
 -29 -37   3  125.13   30.84
  29  37  -3  170.11   30.33
 -29  37  -3  124.90   34.73
 -29  37  -3   71.19   29.35
  31   1   3   17.82    9.59
 -31  -1  -3   27.67   13.44
 -31  -1   3   32.05   13.47
  31   1  -3   18.26   13.74
  31   3   3  690.98  116.28
 -31  -3  -3  673.73  116.66
 -31  -3   3  587.47  116.41
  31   3  -3  624.53  116.17
  31   5   3  958.93  176.81
 -31  -5  -3  979.85  177.10
 -31  -5   3 1060.37  177.34
  31   5  -3  972.58  176.75
 -31  -7   3  358.49   50.89
  31   7   3  380.05   62.78
 -31  -7  -3  268.31   62.29
  31   7  -3  331.98   62.21
  31   9   3  199.39   35.70
 -31  -9  -3  144.60   35.12
 -31  -9   3  202.24   37.11
  31   9  -3  160.10   34.81
  31  11   3   -7.57   12.10
 -31 -11  -3    4.41   11.74
 -31 -11   3    4.65   15.28
  31  11  -3    1.99   10.36
  31  13   3    2.28   11.75
 -31 -13  -3   12.30   12.35
 -31 -13   3   21.16   12.18
  31  13  -3    2.64   11.16
 -31  13  -3    4.25    9.15
 -31  13  -3    6.11    7.79
  31  15   3   17.73   15.16
 -31 -15  -3   90.63   16.58
 -31 -15   3   80.82   16.42
  31  15  -3   18.31   15.16
 -31  15  -3   76.28   14.10
 -31  15  -3    0.87   12.54
  31  17   3   28.85   13.01
 -31 -17  -3    7.49   12.15
 -31 -17   3    7.77    9.33
  31  17  -3   20.35   13.00
 -31  17  -3    5.37   11.65
 -31  17  -3   -0.35    8.88
  31  19   3   31.98   10.61
 -31 -19  -3   16.58   13.26
 -31 -19   3   29.82   14.74
  31  19  -3   31.58   13.97
 -31  19  -3   30.16   12.80
 -31  19  -3   -4.19   10.59
  31  21   3   57.47   15.25
 -31 -21  -3   31.78   14.43
 -31 -21   3   25.80   15.56
  31  21  -3   50.80   14.71
 -31  21  -3   28.66   15.49
 -31  21  -3   -0.09   11.94
 -31 -23  -3    5.44   10.17
  31  23   3   12.00   14.09
 -31 -23   3    0.36   16.26
  31  23  -3    4.18   15.55
 -31  23  -3    4.19   16.48
 -31  23  -3   10.70   14.91
  31  25   3   53.88   19.45
 -31 -25  -3   81.38   19.91
 -31 -25   3   88.72   22.68
  31  25  -3   64.98   20.17
 -31  25  -3   84.94   22.14
 -31  25  -3    2.24   20.02
  31  27  -3   90.90   19.79
  31  27   3  102.97   23.12
 -31 -27  -3   80.77   23.61
 -31 -27   3   93.00   26.05
 -31  27  -3   75.64   23.88
 -31 -29   3  443.36   71.81
  31  29   3  502.99   91.13
 -31 -29  -3  439.33   91.50
  31  29  -3  595.51   91.52
 -31  29  -3  467.12   92.71
 -31 -31  -3  246.15   37.17
  31  31   3  277.52   43.84
 -31 -31   3  263.27   44.44
  31  31  -3  302.55   44.54
 -31  31  -3  203.25   45.39
 -31  31  -3  -12.39   44.27
 -31 -33  -3   41.84   16.36
  31  33   3   44.77   17.80
 -31 -33   3   54.20   18.72
  31  33  -3   52.26   19.07
 -31  33  -3   51.79   21.70
  31  35   3   39.64   13.88
 -31 -35  -3   28.89   18.35
 -31 -35   3   33.05   19.67
  31  35  -3   46.97   18.44
 -31  35  -3   19.20   22.50
 -31  35  -3    4.87   17.22
  33   1   3  155.39   28.40
 -33  -1  -3  108.07   28.66
 -33  -1   3  123.54   28.84
  33   1  -3  144.26   28.90
  33   3   3  471.06   64.38
  33   3  -3  468.22   64.33
 -33  -3  -3  413.62   82.71
 -33  -3   3  435.30   82.74
  33   5   3 1364.10  224.64
 -33  -5  -3 1163.96  224.82
 -33  -5   3 1215.00  224.93
  33   5  -3 1274.93  224.49
  33   7   3  868.97  120.78
 -33  -7  -3  753.50  159.04
 -33  -7   3  891.66  159.70
  33   7  -3 1011.05  159.05
  33   9   3  363.04   61.23
 -33  -9  -3  295.03   61.05
 -33  -9   3  317.36   62.09
  33   9  -3  324.60   60.77
  33  11   3   35.41   14.64
 -33 -11  -3   29.70   14.04
 -33 -11   3   27.40   17.68
  33  11  -3   43.58   13.64
  33  13   3   69.73   17.66
 -33 -13  -3   86.48   18.30
 -33 -13   3   76.89   18.20
  33  13  -3   62.93   16.80
 -33  13  -3    7.18   14.31
  33  15   3  197.64   26.08
 -33 -15  -3   64.87   25.54
 -33 -15   3   57.75   25.26
  33  15  -3  195.54   25.99
 -33  15  -3    3.80   22.96
  33  17   3   23.62   17.26
 -33 -17  -3   98.02   18.66
 -33 -17   3  121.69   19.38
  33  17  -3   12.88   17.25
 -33  17  -3  115.30   17.75
 -33  17  -3   -3.25   15.24
  33  19   3  168.90   29.92
 -33 -19  -3  127.19   28.43
 -33 -19   3  166.50   31.01
  33  19  -3  195.16   30.02
 -33  19  -3  149.26   30.32
 -33  19  -3    1.31   27.16
  33  21   3  149.59   30.13
 -33 -21  -3  181.40   30.63
 -33 -21   3  169.01   31.24
  33  21  -3  153.70   29.97
 -33  21  -3  164.15   31.12
 -33  21  -3    8.19   27.58
  33  23   3    4.52   13.94
 -33 -23  -3   -0.98   10.31
 -33 -23   3    9.05   16.39
  33  23  -3   10.33   14.87
 -33  23  -3   -5.27   18.52
 -33  23  -3   -1.34   15.57
  33  25   3  173.68   33.35
 -33 -25  -3  181.45   33.52
 -33 -25   3  194.00   35.64
  33  25  -3  204.37   34.33
 -33  25  -3    6.03   33.00
  33  27   3  219.27   41.46
 -33 -27  -3  257.76   42.24
 -33 -27   3  266.98   44.04
  33  27  -3  233.72   42.14
 -33  27  -3  251.14   44.69
 -33  27  -3   -1.48   40.78
 -33 -29   3  100.25   21.75
  33  29   3  126.53   24.61
 -33 -29  -3   97.55   25.45
  33  29  -3  154.99   25.90
 -33  29  -3   65.82   25.14
 -33  29  -3    8.82   25.01
  33  31   3   27.40   15.99
 -33 -31  -3   39.73   18.27
 -33 -31   3   36.26   17.66
  33  31  -3   31.86   18.11
 -33  31  -3   26.27   19.85
 -33  31  -3    5.39   16.30
  33  33   3    0.50   14.22
 -33 -33  -3   -2.25   16.98
 -33 -33   3   -8.10   15.46
  33  33  -3    4.78   17.20
 -33  33  -3    7.07   16.09
  35   1   3   26.23   13.43
 -35  -1  -3   23.67   13.87
 -35  -1   3   21.44   14.35
  35   1  -3   22.82   13.88
  35   3   3  104.11   21.50
 -35  -3  -3   71.01   21.67
 -35  -3   3   58.12   21.97
  35   3  -3  105.08   22.30
  35   5   3  248.67   36.86
 -35  -5  -3  174.04   45.28
 -35  -5   3  219.66   46.28
  35   5  -3  267.75   45.30
 -35  -7  -3 1022.47  149.88
  35   7   3 1078.66  196.91
 -35  -7   3 1246.36  197.80
  35   7  -3 1071.04  196.89
  35   9   3  600.82  109.21
 -35  -9  -3  555.53  109.27
 -35  -9   3  653.12  110.04
  35   9  -3  596.72  108.99
 -35 -11  -3   48.20   13.88
  35  11   3   48.71   15.92
 -35 -11   3   53.25   18.02
  35  11  -3   41.41   15.51
 -35 -13   3   81.01   17.26
  35  13   3   69.46   18.85
 -35 -13  -3   69.63   19.46
  35  13  -3   58.79   18.92
  35  15   3   98.88   25.11
 -35 -15  -3  224.71   28.67
 -35 -15   3  203.14   28.57
  35  15  -3   88.22   26.59
 -35  15  -3    2.84   26.62
  35  17   3  244.22   27.50
 -35 -17  -3   75.97   26.55
 -35 -17   3   77.74   26.87
  35  17  -3  193.11   26.66
 -35  17  -3   61.43   25.71
 -35  17  -3   -5.20   25.53
 -35 -19  -3    5.87   11.46
  35  19   3   34.30   14.57
 -35 -19   3    6.95   15.65
  35  19  -3   36.76   14.42
 -35  19  -3   17.07   13.77
 -35  19  -3    1.20   15.67
  35  21  -3   11.19    9.95
  35  21   3    0.87   13.98
 -35 -21  -3    2.85   13.99
 -35 -21   3   -1.60   15.16
 -35  21  -3   -1.45   15.08
 -35 -23  -3    9.24   11.74
 -35 -23   3   15.36   14.74
  35  23   3   43.62   15.86
  35  23  -3   30.30   15.34
 -35  23  -3   23.95   23.00
 -35  23  -3   13.00   15.92
  35  25   3  104.10   21.09
 -35 -25  -3   85.78   23.70
 -35 -25   3   95.16   26.56
  35  25  -3  118.87   24.24
 -35  25  -3  118.77   30.80
 -35  25  -3   -3.97   23.22
  35  27   3  676.07   98.27
 -35 -27  -3  566.36   98.29
 -35 -27   3  596.25   99.39
  35  27  -3  717.10   98.59
 -35  27  -3  588.38  100.89
 -35  27  -3   16.33   96.69
  35  29   3  260.06   57.60
 -35 -29  -3  385.70   59.13
 -35 -29   3  436.02   59.46
  35  29  -3  348.32   58.68
 -35  29  -3  380.66   62.93
 -35  29  -3   10.29   57.53
 -37  -1   3    4.79   11.74
  37   1   3   18.98   14.33
 -37  -1  -3   12.25   15.09
  37   1  -3   12.41   10.85
  37   3   3    4.11   13.97
 -37  -3  -3   22.40   15.68
 -37  -3   3   10.73   15.91
  37   3  -3    6.95   14.14
  37   5   3  191.57   47.47
 -37  -5  -3  341.71   49.29
 -37  -5   3  292.94   49.59
  37   5  -3  182.70   47.36
  37   7   3  833.97  141.51
 -37  -7  -3  725.18  142.51
 -37  -7   3  756.08  142.37
  37   7  -3  815.56  141.84
  37   9   3  287.03   55.48
 -37  -9  -3  293.90   56.23
 -37  -9   3  273.25   55.20
  37   9  -3  309.10   55.59
  37  11   3   22.83   12.96
 -37 -11  -3   19.23   14.18
 -37 -11   3   13.77   14.19
  37  11  -3   17.67   14.26
  37  13   3   32.14   11.46
  37  13  -3   30.18   11.82
 -37 -13  -3   18.29   14.49
 -37 -13   3   19.12   15.14
  37  15   3  118.36   19.56
 -37 -15  -3   41.56   18.98
 -37 -15   3   48.05   19.71
  37  15  -3  127.51   19.84
 -37  15  -3   31.76   18.21
 -37  15  -3   -1.44   19.54
  37  17   3   98.44   24.81
 -37 -17  -3  142.28   25.78
 -37 -17   3  144.32   26.57
  37  17  -3  114.23   24.48
 -37  17  -3  111.88   29.24
 -37  17  -3    1.16   24.33
  37  19   3   44.20   14.39
  37  19  -3   46.61   13.91
 -37 -19  -3   58.56   18.61
 -37 -19   3   67.37   19.34
 -37  19  -3   47.90   19.47
 -37  19  -3    8.32   16.51
  37  21   3   72.81   19.14
 -37 -21  -3   52.66   19.76
 -37 -21   3   47.34   20.09
  37  21  -3   61.74   18.74
 -37  21  -3   45.79   23.07
  37  23   3   12.12   15.38
 -37 -23  -3   25.59   12.01
 -37 -23   3   15.45   19.95
  37  23  -3   11.76   14.87
 -37  23  -3   16.92   27.16
  37  25   3  270.10   43.28
 -37 -25  -3  247.20   43.23
 -37 -25   3  260.09   45.26
  37  25  -3  245.90   42.87
 -37  25  -3  217.47   48.78
 -37  25  -3   14.66   43.29
 -37 -27   3  608.85   84.32
  37  27   3  607.12  105.27
 -37 -27  -3  806.48  106.32
  37  27  -3  654.46  105.72
 -37  27  -3  761.87  109.41
 -37  27  -3    6.22  103.92
  39   1   3   -2.41   14.09
 -39  -1  -3    2.39   15.27
 -39  -1   3   11.63   16.04
  39   1  -3   -1.80   15.08
  39   3   3   68.57   18.32
 -39  -3  -3   18.16   18.36
 -39  -3   3   36.20   20.52
  39   3  -3   73.38   18.68
  39   5   3  150.41   25.45
 -39  -5  -3   45.33   23.07
 -39  -5   3   38.41   26.67
  39   5  -3  155.53   25.63
  39   7   3  803.88  135.79
 -39  -7  -3  783.45  136.71
 -39  -7   3  738.82  136.39
  39   7  -3  685.85  135.68
  39   9   3  285.61   61.87
 -39  -9  -3  378.12   63.64
 -39  -9   3  326.10   62.02
  39   9  -3  336.20   62.13
  39  11  -3   23.77   12.80
  39  11   3   21.59   14.43
 -39 -11  -3   39.47   17.39
 -39 -11   3   45.89   16.39
  39  13   3  218.36   41.10
 -39 -13  -3  179.18   41.44
 -39 -13   3  215.63   41.98
  39  13  -3  205.89   41.29
  39  15   3  138.99   29.61
 -39 -15  -3  137.55   30.27
 -39 -15   3  131.45   30.60
  39  15  -3  132.74   29.83
  39  17   3  327.83   37.77
  39  17  -3  335.69   37.55
 -39 -17  -3  238.10   45.50
 -39 -17   3  267.21   46.45
 -39  17  -3  154.68   46.20
 -39  17  -3   -1.03   45.17
  39  19   3  314.46   51.06
 -39 -19  -3  304.04   51.70
 -39 -19   3  293.85   52.01
  39  19  -3  350.15   51.06
 -39  19  -3  272.85   55.60
 -39  19  -3   -3.86   50.39
  39  21  -3   42.56   14.09
  39  21   3   53.90   17.70
 -39 -21  -3   55.58   18.86
 -39 -21   3   51.06   19.34
 -39  21  -3   26.54   26.00
 -39  21  -3    8.99   20.52
 -39 -23  -3   13.14   12.78
  39  23   3   27.96   16.36
 -39 -23   3   26.40   20.66
  39  23  -3    8.56   15.44
 -39  23  -3    4.79   26.90
 -39  23  -3   -3.23   17.95
  41   1   3   17.32   15.57
 -41  -1  -3   26.05   16.92
 -41  -1   3   22.38   17.60
  41   1  -3   16.76   16.97
  41   3   3   76.52   20.99
 -41  -3  -3  123.43   26.14
 -41  -3   3   96.51   27.67
  41   3  -3  105.26   25.93
  41   5   3   16.82   17.34
 -41  -5  -3   85.41   20.00
 -41  -5   3   66.85   21.21
  41   5  -3   23.19   18.23
  41   7   3  136.86   32.35
 -41  -7  -3  167.48   34.16
 -41  -7   3  158.88   34.46
  41   7  -3  141.91   32.72
 -41  -9   3   36.20   15.41
  41   9  -3   67.23   15.91
  41   9   3   67.54   18.17
 -41  -9  -3   30.69   21.01
  41  11   3   38.42   16.42
 -41 -11  -3   44.31   20.70
 -41 -11   3   43.13   18.21
  41  11  -3   53.60   17.94
  41  13   3   79.13   19.09
 -41 -13  -3   71.60   21.53
 -41 -13   3   50.55   20.19
  41  13  -3   43.51   19.59
  41  15   3  373.19   71.52
 -41 -15  -3  344.46   71.89
 -41 -15   3  417.48   72.52
  41  15  -3  387.78   70.87
  41  17   3  436.98   58.98
 -41 -17  -3  344.83   58.92
 -41 -17   3  345.45   59.62
  41  17  -3  461.07   59.11
 -41  17  -3  151.38   57.72
 -41  17  -3   12.93   58.19
  43   1   3    2.52   15.41
 -43  -1  -3   12.23   17.42
 -43  -1   3    9.51   18.31
  43   1  -3   -0.24   16.78
 -43  -3  -3    1.29   12.25
  43   3   3    9.39   15.30
 -43  -3   3    6.10   18.88
  43   3  -3   15.09   16.97
  43   5  -3   52.13   16.79
  43   5   3   71.01   19.29
 -43  -5  -3   31.81   20.22
 -43  -5   3   49.80   22.01
  43   7   3   43.60   14.66
 -43  -7  -3   26.82   19.33
 -43  -7   3   34.02   16.28
  43   7  -3   58.03   18.87
  43   9   3   27.77   15.04
 -43  -9  -3   16.42   18.61
 -43  -9   3   12.18   16.18
  43   9  -3   44.96   17.29
  43  11   3   34.43   16.28
 -43 -11  -3   45.22   20.87
 -43 -11   3   23.54   17.64
  43  11  -3   29.98   17.50
   0   0   4 7516.43 1322.99
   0   2   4    7.17    8.71
   0  -2  -4    3.51    7.74
   0  -2   4    6.04    9.94
   0   2  -4   -1.93   10.79
   0   4   4  218.39   48.91
   0  -4  -4  251.03   48.51
   0  -4   4  294.59   49.42
   0   4  -4  286.65   49.17
   0   6   4   -3.46    7.98
   0  -6  -4    0.75    9.45
   0  -6   4    3.15    9.36
   0   6  -4    4.09   11.14
   0  -8  -4  204.72   36.02
   0   8  -4  171.84   36.15
   0  10   4   -2.05    9.64
   0 -10  -4    6.52    8.78
   0  10  -4    0.16   10.31
   0  12   4  221.73   40.04
   0 -12  -4  207.54   40.54
   0 -12   4  223.57   40.55
   0  12  -4  193.45   40.46
   0  14   4    0.15   10.35
   0 -14  -4   -2.32    8.64
   0  14  -4   14.72   10.75
   0  16   4  114.90   25.47
   0 -16  -4  122.56   23.36
   0 -16   4  135.27   24.50
   0  16  -4   84.04   22.86
   0  18   4    3.69   10.48
   0 -18  -4    6.13    8.69
   0 -18   4   -2.51   10.78
   0  18  -4    3.40   10.11
   0  20   4  294.09   64.76
   0 -20  -4  346.81   64.62
   0 -20   4  419.46   64.92
   0  22   4    3.50   11.24
   0 -22  -4   -0.67   11.14
   0 -22   4   -1.39   15.03
   0  22  -4    0.59   13.69
   0  24   4  201.36   31.89
   0 -24  -4   88.62   30.63
   0 -24   4  107.51   32.58
   0  24  -4  206.42   32.67
   0  24  -4  171.65   31.47
   0  26   4   11.43   10.96
   0 -26  -4    2.48    9.97
   0 -26   4   -4.66   14.62
   0  26  -4    7.99   11.38
   0  26  -4    5.68   10.61
   0  28   4  115.60   22.91
   0 -28  -4   37.00   21.92
   0  28  -4  131.00   23.16
   0  28  -4  113.66   23.09
   0  30   4    5.35   11.44
   0 -30  -4   -1.62   12.37
   0  30  -4    4.45   10.33
   0  32   4  705.66  120.56
   0 -32  -4  555.53  120.73
   0  32  -4  679.03  120.79
   0  32  -4  720.83  121.06
   0  34   4    3.98   12.25
   0 -34  -4   11.27   14.95
   0  34  -4   -8.10   17.67
   0  34  -4   -2.47   12.41
   0  36   4 1082.07  210.29
   0 -36  -4 1115.55  210.85
   0  36  -4 1285.10  210.80
   0  36  -4 1224.88  210.63
   0  38   4    6.78   16.02
   0 -38  -4   -2.12   13.30
   0  38  -4    6.72   18.52
   0  38  -4   -2.38   13.56
   0  40   4   59.11   18.09
   0 -40  -4   43.44   18.02
   0  40  -4   45.91   22.75
   0  40  -4   56.60   18.92
   0  42   4    7.95   14.16
   0 -42  -4    0.26   14.45
   0  42  -4    6.25   23.08
   0  42  -4   11.62   15.36
   2   0   4    7.91   11.81
  -2   0  -4    8.39    8.62
   2   0  -4   -3.32    8.15
  -2   0   4   13.00    9.06
   2   2   4 1800.19  312.43
  -2  -2  -4 1767.61  312.37
  -2  -2   4 1747.54  312.43
   2   2  -4 1678.79  312.28
  -2   2   4 1818.04  312.41
  -2   2  -4 1793.14  312.32
   2  -2   4 1757.95  312.30
   2   4   4   15.88    9.78
  -2  -4  -4   13.24   10.05
  -2  -4   4    8.28   11.43
   2   4  -4   13.26   10.43
   2  -4  -4   15.56    9.97
  -2   4   4    8.80    9.74
  -2   4  -4   16.94    9.08
   2  -4   4    8.56    9.27
   2   6   4  186.62   31.38
  -2  -6  -4  133.90   31.57
  -2  -6   4  123.97   31.81
   2   6  -4  208.54   31.74
   2  -6  -4  190.06   31.46
  -2   6  -4  119.31   31.14
   2  -6   4  158.11   31.14
   2   8   4   28.48   12.83
  -2  -8  -4   27.43   12.74
  -2  -8   4   30.27    9.73
   2   8  -4   30.66   11.17
   2  -8  -4   22.53   11.95
  -2   8   4   24.58   11.33
  -2   8  -4   35.20    9.96
   2  -8   4   21.35    9.68
   2  10   4  523.60   81.51
  -2 -10  -4  371.07   81.23
  -2 -10   4  374.21   81.25
   2  10  -4  530.45   81.56
   2 -10  -4  534.93   81.24
  -2  10   4  399.46   81.30
  -2  10  -4  360.11   80.94
   2 -10   4  491.57   81.23
   2  12   4  589.76  108.97
  -2 -12  -4  603.93  108.83
  -2 -12   4  656.90  109.27
   2  12  -4  600.31  108.98
   2 -12  -4  602.78  108.78
  -2  12  -4  598.55  108.95
   2 -12   4  594.53  108.88
   2  14   4   74.52   20.26
  -2 -14  -4  116.24   20.66
  -2 -14   4  132.83   22.10
   2  14  -4   67.16   19.87
   2 -14  -4   62.47   20.84
  -2  14   4  129.79   21.09
  -2  14  -4  114.35   20.20
   2 -14   4   69.42   20.73
   2  16   4   17.01   12.00
  -2 -16  -4   22.01   10.04
  -2 -16   4   27.05   12.69
   2  16  -4   22.86   10.98
   2 -16  -4   10.99    9.95
  -2  16  -4   14.45    9.42
   2 -16   4   30.51   11.12
   2  18   4   58.43   17.70
  -2 -18  -4   65.51   17.29
  -2 -18   4   91.79   18.75
   2  18  -4   64.66   16.93
   2 -18  -4   50.82   15.24
  -2  18   4   87.69   16.62
  -2  18  -4   74.00   16.24
   2 -18   4   55.06   18.43
   2  20   4   14.42   11.98
  -2 -20  -4   11.07    9.96
  -2 -20   4   14.00   10.59
   2  20  -4    9.55   11.57
   2 -20  -4   17.48   11.98
  -2  20   4   20.98   12.34
  -2  20  -4    5.57   11.60
   2 -20   4   15.14   10.52
   2  22   4  122.83   29.16
  -2 -22  -4  172.94   28.91
  -2 -22   4  192.84   31.73
   2  22  -4  111.77   29.12
   2 -22  -4  114.06   29.75
   2 -22  -4   97.75   28.12
  -2  22   4  204.64   29.05
  -2  22  -4  153.17   28.63
   2 -22   4  110.91   28.51
   2  24   4  247.06   45.65
  -2 -24  -4  210.02   44.96
  -2 -24   4  315.39   46.71
   2  24  -4  244.03   46.17
   2 -24  -4  228.29   45.10
   2 -24  -4  238.05   44.66
  -2  24  -4  197.17   44.93
   2 -24   4  230.06   45.25
   2  26   4   55.35   17.79
  -2 -26  -4   38.81   14.16
  -2 -26   4   46.69   16.22
   2  26  -4   52.61   15.47
   2  26  -4   49.85   13.72
   2 -26  -4   36.82   16.90
   2 -26  -4   42.46   13.38
  -2  26  -4   42.71   16.05
   2 -26   4   51.84   14.57
   2  28   4   10.77   11.66
  -2 -28  -4   11.12   10.96
  -2 -28   4   15.66   13.51
   2  28  -4   11.01   12.58
   2  28  -4   11.44   10.07
   2 -28  -4   16.42   12.07
   2 -28  -4   21.74   13.35
  -2  28  -4    4.79   12.17
   2 -28   4   17.91   14.00
   2  30   4   64.18   18.54
  -2 -30  -4   29.53   15.71
   2  30  -4   60.28   17.24
   2  30  -4   66.58   16.94
   2 -30  -4   63.62   17.08
   2 -30  -4   57.19   17.96
  -2  30  -4   23.92   17.68
   2 -30   4   65.77   16.26
   2  32   4   27.52   13.90
  -2 -32  -4   25.87   13.99
   2  32  -4   24.37   15.34
   2  32  -4   44.20   13.45
   2 -32  -4   38.50   15.72
   2 -32  -4   38.88   16.08
  -2  32  -4   31.36   16.70
   2 -32   4   28.95   14.17
   2  34   4 2552.62  427.74
  -2 -34  -4 2269.01  427.86
   2  34  -4 2365.64  428.08
   2 -34  -4 2493.25  428.18
   2 -34  -4 2539.43  427.73
  -2  34  -4 2519.10  428.25
   2 -34   4 2168.61  427.67
   2  36   4   57.04   17.06
  -2 -36  -4   44.90   19.21
   2  36  -4   45.78   18.75
   2  36  -4   59.82   17.58
   2 -36  -4   55.35   22.02
  -2  36  -4   29.95   19.69
   2 -36   4   62.11   16.84
   2  38   4   55.56   18.94
  -2 -38  -4   54.46   17.20
   2  38  -4   43.02   19.02
   2  38  -4   45.50   19.82
   2 -38  -4   36.69   22.51
   2 -38  -4   40.84   20.11
  -2  38  -4   77.12   20.45
   2 -38   4   36.51   15.50
   2  40   4   15.35   16.68
  -2 -40  -4    0.93   14.01
   2  40  -4   28.94   16.58
   2  40  -4   11.52   14.94
   2 -40  -4   29.97   23.47
   2 -40  -4    3.31   17.14
  -2  40  -4   -1.93   14.18
   2 -40   4   15.54   16.58
   2  42   4  144.57   32.89
  -2 -42  -4  157.09   32.72
   2  42  -4  139.48   34.80
   2  42  -4  129.82   32.81
   2 -42  -4  153.88   38.37
   2 -42  -4  132.13   33.95
  -2  42  -4  172.32   33.11
   2 -42   4  155.15   31.82
   4   0   4 2943.27  503.34
  -4   0  -4 2970.70  503.31
   4   0  -4 2562.97  502.90
  -4   0   4 2940.14  503.03
   4   2   4  118.19   24.21
  -4  -2  -4  109.30   23.47
  -4  -2   4  127.67   24.57
   4   2  -4  154.64   24.44
   4  -2  -4  105.18   23.07
  -4   2  -4   83.96   23.14
   4  -2   4   98.89   22.94
   4   4   4   81.19   20.48
  -4  -4  -4   76.45   18.07
  -4  -4   4   88.69   18.22
   4   4  -4   92.94   20.33
   4  -4  -4   69.07   17.19
  -4   4  -4   80.90   17.24
   4  -4   4   60.69   16.48
   4   6   4  134.14   25.27
  -4  -6  -4  115.69   25.70
  -4  -6   4  116.35   25.78
   4   6  -4  120.11   25.71
   4  -6  -4  107.96   23.95
  -4   6  -4  117.71   24.15
   4  -6   4  117.74   23.93
   4   8   4   63.98   15.31
  -4  -8  -4   57.70   14.91
   4   8  -4   51.59   14.96
   4  -8  -4   57.13   14.23
  -4   8   4   47.44   14.88
  -4   8  -4   57.31   13.59
   4  -8   4   61.13   13.60
   4  10   4  676.32  115.13
  -4 -10  -4  655.32  115.11
  -4 -10   4  656.33  115.11
   4  10  -4  673.57  115.17
   4 -10  -4  606.53  114.66
  -4  10   4  651.20  114.83
  -4  10  -4  605.68  114.70
   4 -10   4  601.49  114.76
   4  12   4  629.30  104.22
  -4 -12  -4  593.39  104.19
  -4 -12   4  603.37  104.62
   4  12  -4  587.13  104.08
   4 -12  -4  554.10  103.87
  -4  12   4  516.66  103.81
  -4  12  -4  558.74  103.88
   4 -12   4  577.58  103.98
   4  14   4  250.90   44.45
  -4 -14  -4  229.78   44.44
  -4 -14   4  237.83   45.35
   4  14  -4  271.80   45.36
   4 -14  -4  224.37   44.19
  -4  14   4  222.61   44.14
  -4  14  -4  227.91   44.11
   4 -14   4  218.40   44.47
   4  16   4   39.27   13.89
  -4 -16  -4   58.47   14.07
  -4 -16   4   53.14   16.08
   4  16  -4   41.24   14.70
   4 -16  -4   34.51   15.06
  -4  16   4   71.92   15.46
  -4  16  -4   59.37   13.19
   4 -16   4   41.69   13.79
   4  18   4   59.19   15.52
  -4 -18  -4   43.03   13.65
  -4 -18   4   46.28   16.50
   4  18  -4   40.95   14.80
   4 -18  -4   41.41   13.02
   4 -18  -4   47.13   12.46
  -4  18  -4   47.47   13.34
   4 -18   4   58.34   13.69
   4  20   4  413.71   67.18
  -4 -20  -4  336.51   66.45
  -4 -20   4  428.80   67.12
   4  20  -4  404.98   67.07
   4 -20  -4  294.48   66.16
   4 -20  -4  322.58   66.25
  -4  20  -4  370.97   66.45
   4 -20   4  342.03   66.52
   4  22   4  533.55   80.38
  -4 -22  -4  375.60   79.58
  -4 -22   4  443.84   80.52
   4  22  -4  453.09   80.45
   4 -22  -4  431.64   79.81
   4 -22  -4  416.42   79.50
  -4  22  -4  405.82   79.58
   4 -22   4  441.02   80.03
   4  24   4   91.63   21.08
  -4 -24  -4   20.15   17.48
   4  24  -4  101.57   19.13
   4 -24  -4   82.48   18.40
   4 -24  -4   71.58   17.52
  -4  24  -4   29.65   17.29
   4 -24   4  107.55   19.57
   4  26   4  112.82   25.40
  -4 -26  -4  102.85   24.35
  -4 -26   4  141.46   27.26
   4  26  -4  127.43   25.27
   4 -26  -4   85.43   24.15
   4 -26  -4  114.93   24.14
  -4  26  -4  101.95   24.99
   4 -26   4  125.44   24.63
   4  28   4  108.58   23.51
  -4 -28  -4   65.31   22.06
  -4 -28   4   93.43   23.89
   4  28  -4  112.27   23.33
   4  28  -4  106.47   23.09
   4 -28  -4  116.22   23.96
   4 -28  -4  112.68   23.06
  -4  28  -4   66.85   23.60
   4 -28   4  105.33   22.65
   4  30   4   45.95   14.98
  -4 -30  -4   41.95   14.44
  -4 -30   4   54.64   19.65
   4  30  -4   36.69   15.62
   4 -30  -4   36.64   17.02
   4 -30  -4   40.65   14.11
  -4  30  -4   36.45   16.97
   4 -30   4   40.29   17.13
   4  32   4  618.58  111.35
  -4 -32  -4  496.30  111.06
   4  32  -4  660.62  112.14
   4  32  -4  625.84  111.08
   4 -32  -4  667.65  112.11
   4 -32  -4  644.85  111.57
  -4  32  -4  550.60  111.84
   4 -32   4  647.34  111.43
   4  34   4  219.05   40.28
  -4 -34  -4  208.75   40.41
   4  34  -4  209.32   41.14
   4  34  -4  193.41   39.95
   4 -34  -4  196.54   42.39
   4 -34  -4  214.11   41.16
  -4  34  -4  188.44   41.56
   4 -34   4  186.84   39.72
   4  36   4  330.19   64.77
  -4 -36  -4  300.12   65.17
   4  36  -4  364.14   66.48
   4  36  -4  414.70   65.38
   4 -36  -4  363.68   66.71
   4 -36  -4  334.43   65.36
  -4  36  -4  338.56   66.95
   4 -36   4  320.74   64.43
   4  38   4   -5.72   14.97
  -4 -38  -4   -0.44   14.88
   4  38  -4    4.58   19.18
   4  38  -4    2.19   17.26
   4 -38  -4    2.83   19.31
   4 -38  -4  -14.15   15.59
  -4  38  -4   -2.25   16.44
   4 -38   4   -1.81   10.59
   4  40   4   20.12   16.35
  -4 -40  -4   17.44   14.19
   4  40  -4   28.15   20.35
   4  40  -4   29.97   15.16
   4 -40  -4    4.43   23.53
   4 -40  -4    8.06   17.01
  -4  40  -4   10.28   15.59
  -4  40  -4   14.79   14.86
   4 -40   4    8.24   13.22
   4  42   4   63.14   21.32
  -4 -42  -4   69.36   19.57
   4  42  -4   56.44   21.59
   4  42  -4   54.14   20.29
   4 -42  -4   71.90   24.52
  -4  42  -4   54.83   20.38
  -4  42  -4   58.13   20.38
   4 -42   4   52.25   18.46
   6   0   4    3.66   12.38
  -6   0  -4   -6.27   14.83
   6   0  -4    0.04    6.04
  -6   0   4    3.63    8.43
   6   2   4  276.32   47.18
  -6  -2  -4  229.65   46.41
  -6  -2   4  255.41   47.68
   6   2  -4  318.22   47.28
   6  -2  -4  212.17   45.40
  -6   2  -4  198.45   45.62
   6  -2   4  244.08   45.75
   6   4   4   64.03   15.57
  -6  -4  -4   59.78   14.45
  -6  -4   4   56.82   15.80
   6   4  -4   68.34   17.09
   6  -4  -4   49.51   13.66
  -6   4   4   56.25   13.97
  -6   4  -4   62.81   13.92
   6  -4   4   53.54   14.36
   6   6   4   86.46   17.19
  -6  -6  -4   55.44   16.10
  -6  -6   4   71.12   16.89
   6   6  -4   65.35   17.33
   6  -6  -4   66.29   14.33
  -6   6   4   44.02   14.40
  -6   6  -4   53.68   14.54
   6  -6   4   47.07   14.36
   6   8   4   99.23   20.22
  -6  -8  -4   83.53   20.38
  -6  -8   4  106.32   19.65
   6   8  -4   84.78   20.14
   6  -8  -4   56.69   17.66
  -6   8   4   79.78   17.84
  -6   8  -4   80.69   18.01
   6  -8   4   69.43   17.88
   6  10   4  725.11  124.39
  -6 -10  -4  774.90  124.21
  -6 -10   4  667.71  124.13
   6  10  -4  785.61  124.28
   6 -10  -4  610.36  123.63
  -6  10  -4  662.15  123.81
   6 -10   4  606.95  123.81
   6  12   4 2335.36  380.76
  -6 -12  -4 2261.57  380.53
  -6 -12   4 2124.59  380.71
   6  12  -4 2270.83  380.60
   6 -12  -4 2059.14  380.08
  -6  12   4 2005.38  380.14
  -6  12  -4 2053.43  380.32
   6 -12   4 2093.83  380.36
   6  14   4  256.91   42.56
  -6 -14  -4  206.54   42.25
   6  14  -4  243.17   43.30
   6 -14  -4  205.58   41.81
   6 -14  -4  195.32   41.27
  -6  14  -4  206.88   42.01
   6 -14   4  240.62   42.41
   6  16   4  132.85   25.40
  -6 -16  -4  114.85   26.17
  -6 -16   4  127.71   25.80
   6  16  -4  138.29   26.93
   6 -16  -4  123.10   25.10
   6 -16  -4   97.12   23.96
  -6  16  -4  101.61   24.42
   6 -16   4  136.25   25.83
   6  18   4   62.58   17.76
  -6 -18  -4   87.07   17.92
  -6 -18   4   62.70   18.43
   6  18  -4   83.08   20.56
   6 -18  -4   76.09   17.76
   6 -18  -4   69.83   16.23
  -6  18  -4   74.56   18.04
   6 -18   4   74.31   18.17
   6  20   4   24.38   13.27
  -6 -20  -4   13.31   10.62
  -6 -20   4   16.12   12.18
   6  20  -4   20.56   12.96
   6 -20  -4   15.93   10.00
   6 -20  -4   10.52    9.59
  -6  20  -4   18.45    9.69
   6 -20   4   24.77   10.27
   6  22   4 1406.11  237.61
  -6 -22  -4 1266.70  237.28
  -6 -22   4 1428.48  237.81
   6  22  -4 1509.43  237.72
   6 -22  -4 1342.47  237.03
   6 -22  -4 1202.26  236.98
  -6  22  -4 1255.97  237.34
   6 -22   4 1278.51  237.30
   6  24   4  586.09   95.47
  -6 -24  -4  499.14   94.92
  -6 -24   4  583.96   95.56
   6  24  -4  529.77   95.11
   6 -24  -4  518.75   94.98
   6 -24  -4  477.82   94.50
  -6  24  -4  468.33   95.24
   6 -24   4  524.25   95.03
   6  26   4   -2.59   12.60
  -6 -26  -4   -1.47   10.73
  -6 -26   4   -4.71   15.09
   6  26  -4    2.17   12.48
   6 -26  -4    7.23    9.82
   6 -26  -4    0.19   10.70
  -6  26  -4    6.31   12.45
   6 -26   4    2.29   10.95
   6  28   4   41.04   15.41
  -6 -28  -4   40.85   13.81
  -6 -28   4   52.06   18.67
   6  28  -4   37.42   15.27
   6 -28  -4   25.64   13.55
   6 -28  -4   31.72   14.47
  -6  28  -4   41.92   16.15
   6 -28   4   44.15   13.92
   6  30   4   51.05   16.46
  -6 -30  -4   28.57   14.68
  -6 -30   4   53.84   17.90
   6  30  -4   55.10   18.58
   6  30  -4   53.33   16.14
   6 -30  -4   33.23   17.06
   6 -30  -4   36.43   15.48
  -6  30  -4   44.78   17.54
   6 -30   4   50.32   14.33
   6  32   4   50.27   16.37
  -6 -32  -4   45.54   15.94
  -6 -32   4   57.26   21.39
   6  32  -4   57.77   17.92
   6  32  -4   58.23   15.55
   6 -32  -4   51.61   19.32
   6 -32  -4   47.11   16.75
  -6  32  -4   43.26   18.82
   6 -32   4   54.59   15.44
   6  34   4  353.07   68.94
  -6 -34  -4  368.40   69.01
   6  34  -4  427.53   70.69
   6  34  -4  377.16   68.73
   6 -34  -4  388.81   70.36
   6 -34  -4  365.05   69.15
  -6  34  -4  386.68   70.15
   6 -34   4  308.38   68.45
   6  36   4  174.34   34.32
  -6 -36  -4  163.98   35.46
   6  36  -4  171.92   35.18
   6  36  -4  174.36   34.57
   6 -36  -4  187.14   35.32
   6 -36  -4  162.89   34.48
  -6  36  -4  173.14   35.11
  -6  36  -4  144.26   35.48
   6 -36   4  113.31   32.55
   6  38   4   96.85   23.18
  -6 -38  -4   87.56   24.60
   6  38  -4   91.23   24.09
   6  38  -4   93.77   22.64
   6 -38  -4   85.91   28.00
   6 -38  -4   73.62   21.87
  -6  38  -4   69.36   23.86
  -6  38  -4   96.60   24.91
   6 -38   4   74.81   22.74
   6  40   4   61.44   19.46
  -6 -40  -4   45.51   21.12
   6  40  -4   64.05   20.58
   6  40  -4   50.57   18.97
   6 -40  -4   40.36   26.29
   6 -40  -4   50.96   21.15
  -6  40  -4   54.86   19.31
  -6  40  -4   47.18   18.96
   6 -40   4   54.06   17.37
   6  42  -4   89.83   27.95
   6 -42  -4   84.54   27.78
   8   0   4   28.60   14.82
  -8   0  -4   49.63   14.96
   8   0  -4   17.36    8.93
  -8   0   4   37.78   10.42
   8   2   4  119.85   21.87
  -8  -2  -4   65.21   19.32
  -8  -2   4  102.38   21.19
   8   2  -4  117.45   21.34
   8  -2  -4   79.39   17.22
  -8   2   4   60.70   17.68
  -8   2  -4   59.23   17.52
   8  -2   4   71.91   17.76
   8   4   4   10.21   10.54
  -8  -4  -4   10.43    8.56
  -8  -4   4    2.44   10.67
   8   4  -4    7.09   15.58
   8  -4  -4    5.00    5.76
   8  -4   4   12.14    6.79
   8   6   4   88.53   20.38
  -8  -6  -4   90.11   21.34
  -8  -6   4   86.54   20.38
   8   6  -4   90.95   20.86
  -8   6  -4   68.50   18.26
   8   8   4   19.93   12.30
  -8  -8  -4    2.68    9.27
  -8  -8   4    7.17   11.40
   8   8  -4   12.15   12.48
   8  -8  -4    5.40    5.66
  -8   8  -4    2.23    7.62
   8  -8   4   17.13    8.61
   8  10   4  357.40   54.95
  -8 -10  -4  281.31   53.89
  -8 -10   4  271.94   53.95
   8  10  -4  324.71   54.57
  -8  10  -4  252.82   53.52
   8 -10   4  262.05   53.63
   8  12   4 2073.94  295.91
  -8 -12  -4 1518.34  295.26
   8  12  -4 1857.34  295.49
   8 -12  -4 1287.40  294.71
  -8  12  -4 1624.16  295.18
   8 -12   4 1657.18  295.12
   8  14   4  241.54   41.03
  -8 -14  -4  185.60   40.23
  -8 -14   4  237.00   41.86
   8  14  -4  239.81   40.89
   8 -14  -4  185.70   39.51
  -8  14  -4  179.76   39.88
   8 -14   4  215.75   39.96
   8  16   4  105.35   21.79
  -8 -16  -4   79.44   21.29
  -8 -16   4  115.33   22.58
   8  16  -4  117.59   22.43
   8 -16  -4   72.53   19.61
  -8  16  -4   87.39   20.45
   8 -16   4  107.73   20.44
   8  18   4   36.88   13.43
  -8 -18  -4   25.88   12.46
  -8 -18   4   44.17   15.85
   8  18  -4   43.40   17.07
   8 -18  -4   45.20   11.99
   8 -18  -4   36.24   11.10
  -8  18  -4   26.25   12.85
   8 -18   4   54.30   13.95
   8  20   4  439.69   83.76
  -8 -20  -4  399.36   83.47
  -8 -20   4  568.03   84.42
   8  20  -4  552.45   84.28
   8 -20  -4  459.21   83.09
   8 -20  -4  411.13   83.05
  -8  20  -4  402.68   83.34
   8 -20   4  465.76   83.70
   8  22   4  442.27   71.25
  -8 -22  -4  361.26   70.45
  -8 -22   4  417.68   71.27
   8  22  -4  415.85   71.63
   8 -22  -4  342.75   69.81
  -8  22  -4  329.28   70.63
   8 -22   4  386.96   70.57
   8  24   4 1269.91  226.76
  -8 -24  -4 1194.40  226.47
  -8 -24   4 1353.46  226.98
   8  24  -4 1387.42  226.68
   8 -24  -4 1272.49  226.24
   8 -24  -4 1196.40  226.10
  -8  24  -4 1212.08  226.69
   8 -24   4 1300.95  226.73
   8  26   4   58.59   17.88
  -8 -26  -4   59.44   16.09
  -8 -26   4   72.54   21.29
   8  26  -4   41.91   17.11
   8 -26  -4   44.86   16.80
   8 -26  -4   45.20   14.56
  -8  26  -4   75.05   19.91
   8 -26   4   44.74   14.91
   8  28   4  151.90   31.23
  -8 -28  -4  174.78   30.88
  -8 -28   4  176.71   35.02
   8  28  -4  152.84   32.57
   8 -28  -4  119.82   29.79
   8 -28  -4  121.52   30.36
  -8  28  -4  171.55   32.00
   8 -28   4  125.41   29.86
   8  30   4   55.60   17.37
  -8 -30  -4   46.06   15.80
  -8 -30   4   74.06   23.42
   8  30  -4   52.17   17.14
   8 -30  -4   37.56   15.56
   8 -30  -4   44.33   15.51
  -8  30  -4   52.22   18.32
  -8  30  -4   50.59   21.02
   8 -30   4   56.02   16.32
   8  32   4  478.96   90.81
  -8 -32  -4  424.32   90.46
  -8 -32   4  584.42   91.60
   8  32  -4  581.05   91.27
   8  32  -4  492.90   90.45
   8 -32  -4  489.48   90.83
   8 -32  -4  492.33   90.60
  -8  32  -4  533.90   91.21
  -8  32  -4  471.56   92.04
   8 -32   4  416.42   90.24
   8  34   4   54.85   17.62
  -8 -34  -4   47.45   17.36
  -8 -34   4   65.58   20.25
   8  34  -4   64.92   19.51
   8  34  -4   41.70   16.49
   8 -34  -4   76.86   21.38
  -8  34  -4   57.83   19.92
  -8  34  -4   46.35   19.91
   8 -34   4   72.73   17.48
   8  36   4   86.96   24.96
  -8 -36  -4  105.31   26.12
   8  36  -4  128.37   26.21
   8  36  -4   96.88   23.53
   8 -36  -4  125.12   29.36
   8 -36  -4   80.52   25.41
  -8  36  -4   96.55   28.53
  -8  36  -4  103.07   26.66
   8 -36   4  105.49   24.03
   8  38   4   -0.03   14.32
  -8 -38  -4    8.70   16.74
   8  38  -4    9.33   16.10
   8  38  -4    2.34   12.28
   8 -38  -4   11.77   21.60
   8 -38  -4   -5.28   13.17
  -8  38  -4   11.30   16.70
  -8  38  -4    8.73   16.90
   8 -38   4    8.98   12.87
   8  40   4    5.70   15.25
  -8 -40  -4   22.43   17.65
   8  40  -4   -7.10   16.84
   8  40  -4   -0.17   14.34
   8 -40  -4   15.62   23.54
   8 -40  -4    8.53   17.10
  -8  40  -4    7.48   19.38
  -8  40  -4    5.53   14.73
  10   0   4    2.33   13.80
 -10   0  -4   10.34    9.69
  10   2   4   24.62   15.66
 -10  -2  -4   47.52   12.05
 -10  -2   4   70.12   16.03
  10   2  -4   32.74   18.09
  10  -2   4   10.13    8.94
  10   4   4    6.91   10.34
 -10  -4  -4   15.04    9.21
 -10  -4   4   19.29   11.39
  10   4  -4    6.93   13.52
 -10   4  -4    8.05    7.18
  10  -4   4    9.80    6.04
  10   6   4   91.02   26.25
 -10  -6  -4  163.19   26.40
 -10  -6   4  162.96   27.28
  10   6  -4  112.56   27.38
 -10   6  -4  107.90   24.77
  10   8   4  115.29   23.32
 -10  -8  -4  112.96   22.77
 -10  -8   4  131.86   24.07
  10   8  -4  105.99   24.15
 -10   8  -4   93.56   21.69
  10  -8   4   78.42   21.16
  10  10   4 1340.32  243.79
 -10 -10  -4 1442.43  243.69
 -10 -10   4 1352.86  243.81
  10  10  -4 1354.05  243.75
  10  12   4  227.84   46.18
 -10 -12  -4  211.75   45.42
 -10 -12   4  267.90   45.88
  10  12  -4  288.94   46.25
 -10  12  -4  226.46   45.29
  10 -12   4  228.97   45.10
  10  14   4  379.55   64.75
 -10 -14  -4  304.89   63.97
 -10 -14   4  350.44   64.41
  10  14  -4  423.92   64.99
 -10  14  -4  289.23   63.45
  10 -14   4  340.01   63.53
  10  16   4   26.40   13.74
 -10 -16  -4   22.38   11.42
 -10 -16   4   39.82   15.94
  10  16  -4   18.44   13.29
 -10  16  -4   28.20   11.07
  10 -16   4   23.59    9.56
  10  18   4  158.48   30.44
 -10 -18  -4  119.97   30.10
 -10 -18   4  150.53   31.08
  10  18  -4  182.07   31.36
 -10  18  -4  149.93   31.26
  10 -18   4  140.48   29.55
  10  20   4   56.86   14.87
 -10 -20  -4   39.45   14.39
 -10 -20   4   48.70   15.94
  10  20  -4   73.99   17.27
  10 -20  -4   40.83   12.91
 -10  20  -4   43.83   14.79
  10 -20   4   48.96   13.36
  10  22   4 3235.40  508.40
 -10 -22  -4 2717.61  508.10
 -10 -22   4 3156.14  508.67
  10  22  -4 3165.91  508.38
  10 -22  -4 2747.47  507.57
  10 -22  -4 2460.67  507.52
 -10  22  -4 2743.40  508.21
  10 -22   4 2825.67  508.11
  10  24   4    7.07   11.56
 -10 -24  -4    4.06   10.97
 -10 -24   4   17.57   15.93
  10  24  -4    9.13   16.16
  10 -24  -4    6.05    9.64
  10 -24  -4    0.52    9.05
 -10  24  -4    9.42   15.53
 -10  24  -4    9.92   12.26
  10 -24   4    5.87    8.70
  10  26   4    9.69   12.56
 -10 -26  -4   21.50   12.41
 -10 -26   4   19.32   16.19
  10  26  -4   22.90   14.11
  10 -26  -4   20.34   12.86
  10 -26  -4   17.86   10.32
 -10  26  -4   29.21   17.01
 -10  26  -4   16.62   13.82
  10 -26   4   18.35   10.88
  10  28   4    6.17   11.75
 -10 -28  -4    4.91   11.78
 -10 -28   4   13.38   19.66
  10  28  -4   -0.02   13.62
  10 -28  -4    0.93   11.49
  10 -28  -4    3.06   10.54
 -10  28  -4   17.34   17.22
 -10  28  -4   10.82   16.97
  10 -28   4    9.21   11.05
  10  30   4  179.33   35.02
 -10 -30  -4  181.44   34.55
 -10 -30   4  193.00   36.90
  10  30  -4  155.22   36.12
  10 -30  -4  141.27   33.95
  10 -30  -4  145.87   34.12
 -10  30  -4  211.46   37.20
 -10  30  -4  151.29   35.57
  10 -30   4  165.17   34.13
  10  32   4   46.38   16.65
 -10 -32  -4   30.74   14.72
 -10 -32   4   48.94   19.34
  10  32  -4   44.08   16.73
  10 -32  -4   32.00   16.42
  10 -32  -4   34.08   16.14
 -10  32  -4   33.77   17.60
 -10  32  -4   39.11   17.71
  10 -32   4   51.51   17.09
  10  34   4   72.31   17.08
 -10 -34  -4   10.69   17.80
 -10 -34   4   13.99   18.09
  10  34  -4   79.05   18.13
  10  34  -4   49.60   16.87
  10 -34  -4   54.57   19.48
  10 -34  -4   50.39   16.02
 -10  34  -4   11.33   19.26
 -10  34  -4   13.05   17.70
  10 -34   4   46.15   15.25
  10  36   4   55.75   18.01
 -10 -36  -4   54.08   19.59
 -10 -36   4   44.95   20.01
  10  36  -4   68.19   22.18
  10  36  -4   45.80   15.89
  10 -36  -4   59.38   22.77
  10 -36  -4   39.44   17.05
 -10  36  -4   43.76   22.06
 -10  36  -4   28.76   19.52
  10  38   4  175.04   32.33
 -10 -38  -4  111.70   32.71
  10  38  -4  150.53   33.38
  10  38  -4  144.92   32.01
  10 -38  -4  177.15   36.26
  10 -38  -4  133.86   31.99
 -10  38  -4  162.78   34.71
 -10  38  -4  103.01   33.14
  10  40   4    2.68   14.87
 -10 -40  -4    8.70   17.21
  10  40  -4   14.04   19.93
  10 -40  -4   11.40   16.30
 -10  40  -4    3.29   21.84
 -10  40  -4   12.39   15.12
  12   0   4  267.45   42.63
 -12   0  -4  170.32   42.40
  12   2   4   66.73   16.35
 -12  -2  -4   40.96   14.74
 -12  -2   4   57.75   15.49
  12   2  -4   60.60   15.61
  12   4   4   84.30   19.38
 -12  -4  -4   72.42   18.35
 -12  -4   4   62.96   18.93
  12   4  -4   99.87   21.21
  12   6   4   42.36   13.42
 -12  -6  -4   42.26   12.62
 -12  -6   4   41.66   13.63
  12   6  -4   40.33   15.74
 -12   6  -4   27.75   10.37
 -12   6  -4   23.72    9.78
  12  -6   4   33.64    9.06
  12   8   4   50.19   14.32
 -12  -8  -4   43.06   13.67
 -12  -8   4   39.68   15.72
  12   8  -4   56.17   18.65
 -12   8  -4   25.04   11.62
  12  -8   4   40.16   10.73
  12  10   4  289.51   50.80
 -12 -10  -4  179.49   50.02
 -12 -10   4  303.25   51.14
  12  10  -4  304.61   51.13
 -12  10  -4  290.62   49.96
 -12  10  -4  248.40   49.51
  12  12   4 2033.36  334.30
 -12 -12  -4 1650.02  333.89
 -12 -12   4 1847.07  334.20
  12  12  -4 2099.56  334.16
 -12  12  -4 1809.64  333.69
  12  14   4   21.67   13.01
 -12 -14  -4    1.01   10.51
 -12 -14   4    6.12   10.17
  12  14  -4   19.86   12.73
 -12  14  -4    4.62    8.76
  12 -14   4   15.14    8.24
  12  16   4  123.25   22.65
 -12 -16  -4   64.08   20.55
 -12 -16   4   76.19   21.91
  12  16  -4  114.11   22.12
 -12  16  -4   72.60   19.97
  12 -16   4  101.51   19.95
  12  18   4   18.91   13.55
 -12 -18  -4   13.15   11.28
 -12 -18   4   26.20   13.64
  12  18  -4   22.93   13.67
 -12  18  -4   19.18   12.65
 -12  18  -4   23.47   11.57
  12 -18   4   11.50    8.69
  12  20   4  361.97   58.14
 -12 -20  -4  226.99   57.60
 -12 -20   4  264.03   58.20
  12  20  -4  407.86   58.88
 -12  20  -4  226.53   57.48
  12 -20   4  368.15   58.00
  12  22   4    2.87   10.81
 -12 -22  -4    7.04   10.64
 -12 -22   4   12.93   12.72
  12  22  -4   10.24   14.02
 -12  22  -4   12.72   15.02
 -12  22  -4   16.48   11.50
  12 -22   4    9.16   12.06
  12  24   4 1886.92  365.15
 -12 -24  -4 1817.71  364.99
 -12 -24   4 2243.24  365.71
  12  24  -4 2335.95  365.38
 -12  24  -4 2166.80  365.54
 -12  24  -4 2095.39  365.47
  12 -24   4 1921.99  365.02
  12  26   4  219.71   36.13
 -12 -26  -4  160.07   35.50
 -12 -26   4  180.73   36.52
  12  26  -4  171.27   36.31
  12 -26  -4  138.88   34.18
 -12  26  -4  214.66   36.92
 -12  26  -4  171.04   36.53
  12  28   4  117.05   26.83
 -12 -28  -4  136.64   26.96
 -12 -28   4  133.45   28.47
  12  28  -4  119.69   27.65
  12 -28  -4   99.10   26.96
  12 -28  -4   93.53   25.79
 -12  28  -4  149.37   29.65
 -12  28  -4  137.25   30.00
  12  30   4   39.31   15.54
 -12 -30  -4   37.13   15.91
 -12 -30   4   62.99   23.53
  12  30  -4   69.32   17.72
  12 -30  -4   44.90   14.78
  12 -30  -4   35.55   15.29
 -12  30  -4   56.26   23.74
 -12  30  -4   41.43   17.85
 -12 -32  -4  330.39   49.88
  12  32   4  285.90   61.64
 -12 -32   4  410.45   64.10
  12  32  -4  295.68   62.38
  12 -32  -4  315.11   62.09
  12 -32  -4  250.83   61.62
 -12  32  -4  412.85   65.13
 -12  32  -4  341.48   63.16
  12  34   4  119.49   23.86
 -12 -34  -4   90.92   23.72
 -12 -34   4   93.61   25.19
  12  34  -4   94.85   26.27
  12  34  -4   94.53   21.99
  12 -34  -4   96.82   25.76
  12 -34  -4   70.28   22.73
 -12  34  -4   98.08   29.48
 -12  34  -4   66.49   24.47
  12  36   4  238.17   43.94
 -12 -36  -4  218.23   44.00
 -12 -36   4  226.20   44.89
  12  36  -4  245.40   45.99
  12  36  -4  194.15   42.77
  12 -36  -4  228.57   45.53
  12 -36  -4  205.96   43.40
 -12  36  -4  221.78   47.66
 -12  36  -4  192.03   46.20
  12  38   4   10.24   14.95
 -12 -38  -4    3.43   16.70
 -12 -38   4    5.55   18.49
  12  38  -4   12.24   23.32
  12  38  -4    6.54   12.81
  12 -38  -4   -3.30   21.49
  12 -38  -4    9.22   23.22
 -12  38  -4   -6.41   23.58
 -12  38  -4    0.18   16.81
  12  40   4   23.44   15.88
 -12 -40  -4   12.41   17.87
  12  40  -4   -2.62   20.16
  12  40  -4   15.71   14.17
  12 -40  -4   31.71   23.83
  12 -40  -4    9.21   23.04
 -12  40  -4   -0.29   22.20
 -12  40  -4   12.76   15.74
  14   0   4    3.41   11.40
 -14   0  -4    0.69   10.23
  14   2   4   25.72   14.73
 -14  -2  -4   54.25   13.72
 -14  -2   4   66.93   14.29
  14   2  -4   24.90   13.68
  14   4   4    7.29   11.89
 -14  -4  -4    0.08   11.35
 -14  -4   4    2.82   10.74
  14   4  -4    5.05   10.27
  14   6   4  151.66   30.90
 -14  -6  -4  185.18   31.43
 -14  -6   4  166.44   32.13
  14   6  -4  108.99   30.54
  14   8   4   46.89   14.42
 -14  -8  -4   21.17   13.69
 -14  -8   4   38.82   16.53
  14   8  -4   52.23   14.03
  14  10   4 1797.16  320.24
 -14 -10  -4 1866.32  320.14
 -14 -10   4 1914.11  320.32
  14  10  -4 1912.02  320.14
 -14  10  -4 1557.19  319.31
  14  12   4  692.94  115.24
 -14 -12  -4  551.21  114.75
 -14 -12   4  624.48  115.25
  14  12  -4  725.06  115.24
 -14  12  -4  596.38  114.37
  14  14   4  148.98   24.20
 -14 -14  -4   85.96   22.57
 -14 -14   4   67.73   22.73
  14  14  -4  164.39   24.44
 -14  14  -4   80.34   22.58
 -14  14  -4   74.40   21.36
  14  16   4   27.98   14.71
 -14 -16  -4   22.58   12.51
 -14 -16   4   39.18   14.45
  14  16  -4   22.73   14.24
 -14  16  -4   31.56   12.04
 -14  16  -4   23.96   10.69
  14  18   4   70.00   18.36
 -14 -18  -4   45.45   16.20
 -14 -18   4   62.21   17.94
  14  18  -4   69.69   18.20
 -14  18  -4   59.95   16.55
 -14  18  -4   46.37   17.37
  14  20   4  108.38   24.41
 -14 -20  -4  100.00   23.68
 -14 -20   4  113.61   24.90
  14  20  -4  111.51   25.27
 -14  20  -4  101.30   24.23
 -14  20  -4  111.68   24.09
  14  22   4 1250.75  239.16
 -14 -22  -4 1246.34  239.11
 -14 -22   4 1327.86  239.71
  14  22  -4 1424.57  239.45
 -14  22  -4 1461.00  239.44
 -14  22  -4 1355.54  239.45
  14  24   4  735.52  126.82
 -14 -24  -4  568.02  126.45
 -14 -24   4  695.73  127.22
  14  24  -4  756.48  127.42
 -14  24  -4  762.64  127.46
 -14  24  -4  704.24  127.10
  14  26   4   58.06   16.10
 -14 -26  -4   41.71   15.56
 -14 -26   4   57.90   17.87
  14  26  -4   50.19   17.71
 -14  26  -4   48.73   18.79
 -14  26  -4   50.24   17.45
  14  28   4   27.74   13.70
 -14 -28  -4   23.20   13.21
 -14 -28   4   29.03   14.87
  14  28  -4   23.01   15.53
 -14  28  -4   31.86   20.48
 -14  28  -4   18.49   18.14
  14  30   4   90.40   21.78
 -14 -30  -4   88.89   21.70
 -14 -30   4   92.56   25.01
  14  30  -4   82.00   23.04
 -14  30  -4   75.40   24.21
 -14  30  -4   98.33   23.25
  14  32   4   51.07   16.67
 -14 -32  -4   56.91   17.74
 -14 -32   4   53.22   21.09
  14  32  -4   31.95   20.49
  14 -32  -4   50.14   16.67
  14 -32  -4   46.17   18.36
 -14  32  -4   38.46   18.47
  14  34   4  119.28   21.48
 -14 -34  -4   34.24   20.45
 -14 -34   4   19.30   23.73
  14  34  -4  110.09   21.91
  14 -34  -4  101.44   24.15
 -14  34  -4   32.57   21.39
  14  36   4  101.82   24.86
 -14 -36  -4   92.63   25.08
 -14 -36   4  103.90   27.69
  14  36  -4  128.91   27.52
  14  36  -4   88.99   24.05
  14 -36  -4   76.15   27.26
  14 -36  -4   96.24   27.98
 -14  36  -4  103.67   25.66
 -14  36  -4   89.19   28.84
  14  38   4   72.14   18.55
 -14 -38  -4   36.88   19.08
 -14 -38   4   36.57   21.94
  14  38  -4   73.58   22.55
  14  38  -4   55.75   18.04
  14 -38  -4   60.86   26.07
  14 -38  -4   60.39   25.52
 -14  38  -4   25.74   19.83
 -14  38  -4   30.68   20.57
  16   0   4  998.49  161.25
 -16   0  -4  799.01  160.97
  16   2   4   46.12   16.20
 -16  -2  -4   69.65   15.11
 -16  -2   4   40.45   14.97
  16   2  -4   40.13   15.02
  16   4   4   53.50   15.11
 -16  -4  -4   38.64   13.26
 -16  -4   4   26.92   14.12
  16   4  -4   41.97   13.85
  16   6   4   55.79   15.69
 -16  -6  -4   34.62   14.83
 -16  -6   4   77.65   18.31
  16   6  -4   42.34   15.75
  16   8   4  188.55   37.39
 -16  -8  -4  179.30   37.09
 -16  -8   4  198.78   38.56
  16   8  -4  188.72   37.06
  16  10   4 1035.40  189.50
 -16 -10  -4 1058.79  189.42
 -16 -10   4 1094.10  189.68
  16  10  -4 1058.82  189.20
  16  12   4  585.33   96.57
 -16 -12  -4  555.65   96.20
 -16 -12   4  619.71   96.47
  16  12  -4  562.17   96.46
 -16  12  -4  362.67   95.29
 -16  12  -4  496.10   95.37
  16  14   4   85.80   18.26
 -16 -14  -4   63.84   17.17
 -16 -14   4   69.66   17.69
  16  14  -4   76.12   18.94
 -16  14  -4   52.98   16.09
 -16  14  -4   47.20   15.58
  16  16   4  126.81   23.50
 -16 -16  -4   86.27   21.61
 -16 -16   4  106.40   22.59
  16  16  -4  109.51   22.95
 -16  16  -4   75.30   20.60
 -16  16  -4   67.54   20.11
  16  18   4   42.04   16.27
 -16 -18  -4   45.65   14.15
 -16 -18   4   43.95   15.98
  16  18  -4   31.55   16.05
 -16  18  -4   31.30   13.24
 -16  18  -4   41.37   14.88
  16  20   4  156.95   26.86
 -16 -20  -4   84.29   24.95
 -16 -20   4  103.58   26.36
  16  20  -4  170.52   27.19
 -16  20  -4   84.72   24.84
 -16  20  -4   90.99   26.11
  16  22   4  313.85   59.45
 -16 -22  -4  260.35   59.26
 -16 -22   4  345.36   60.05
  16  22  -4  336.11   60.28
 -16  22  -4  327.21   59.83
 -16  22  -4  325.69   60.17
  16  24   4  545.36  114.21
 -16 -24  -4  611.67  114.35
 -16 -24   4  723.99  115.10
  16  24  -4  610.47  114.65
 -16  24  -4  648.30  114.33
 -16  24  -4  677.45  114.82
  16  26   4  128.04   32.77
 -16 -26  -4  146.83   32.74
 -16 -26   4  178.28   34.52
  16  26  -4  208.48   35.90
 -16  26  -4  159.90   33.40
 -16  26  -4  145.24   33.69
  16  28   4   82.55   23.15
 -16 -28  -4  105.32   23.02
 -16 -28   4  115.11   24.41
  16  28  -4   90.57   24.27
 -16  28  -4   96.83   26.17
  16  30   4   95.72   21.05
 -16 -30  -4   88.69   22.46
 -16 -30   4   78.69   23.70
  16  30  -4  109.00   23.54
 -16  30  -4   83.27   25.32
 -16  30  -4   59.55   22.88
  16  32   4  279.79   57.40
 -16 -32  -4  326.32   58.19
 -16 -32   4  335.64   59.52
  16  32  -4  288.47   58.14
 -16  32  -4  288.38   58.47
 -16  32  -4  307.64   58.61
  16  34   4  211.05   43.50
 -16 -34  -4  203.64   43.49
 -16 -34   4  229.29   45.84
  16  34  -4  269.21   44.67
 -16  34  -4  157.90   43.76
  16  36   4   72.86   20.61
 -16 -36  -4   80.34   21.15
 -16 -36   4   61.92   24.83
  16  36  -4   79.31   23.27
 -16  36  -4   53.17   22.41
 -16  36  -4   49.48   25.11
  16  38   4    5.04   15.68
 -16 -38  -4    6.18   16.06
 -16 -38   4    6.73   19.54
  16  38  -4   19.84   19.22
  16  38  -4    8.01   14.46
  16 -38  -4   26.77   22.30
  16 -38  -4    3.60   24.16
 -16  38  -4   12.26   22.63
 -16  38  -4   12.12   18.42
  18   0   4    4.21   11.74
 -18   0  -4    8.10   11.44
  18   2   4 1043.19  186.51
 -18  -2  -4 1026.62  186.46
 -18  -2   4 1039.68  186.47
  18   2  -4 1067.08  186.42
  18   4   4   90.61   21.38
 -18  -4  -4   80.83   20.02
 -18  -4   4   75.61   20.71
  18   4  -4   95.38   20.51
  18   6   4  211.47   41.35
 -18  -6  -4  210.76   40.78
 -18  -6   4  226.65   42.45
  18   6  -4  200.35   41.07
  18   8   4   61.65   16.37
 -18  -8  -4   41.16   15.42
 -18  -8   4   35.91   18.76
  18   8  -4   65.68   16.13
  18  10   4 1197.12  202.50
 -18 -10  -4 1087.77  202.36
 -18 -10   4 1159.27  202.58
  18  10  -4 1101.15  202.08
  18  12   4  959.44  153.43
 -18 -12  -4  791.74  153.05
 -18 -12   4  812.99  153.10
  18  12  -4  855.38  152.88
  18  14   4   77.58   17.31
 -18 -14  -4   54.00   15.90
 -18 -14   4   42.15   16.37
  18  14  -4   70.74   15.80
 -18  14  -4   39.01   14.70
 -18  14  -4   49.16   14.39
  18  16   4   40.46   16.04
 -18 -16  -4   56.47   14.92
 -18 -16   4   39.55   15.97
  18  16  -4   39.14   16.69
 -18  16  -4   44.86   14.08
 -18  16  -4   55.02   13.39
  18  18   4   25.66   14.96
 -18 -18  -4   22.54   12.42
 -18 -18   4   22.34   14.59
  18  18  -4   17.58   14.68
 -18  18  -4   12.49   10.96
 -18  18  -4   14.68   12.83
  18  20   4   39.62   13.49
 -18 -20  -4   53.22   14.78
 -18 -20   4   43.00   16.63
  18  20  -4   35.44   16.83
 -18  20  -4   25.65   14.03
 -18  20  -4   37.62   15.22
  18  22   4  112.96   22.91
 -18 -22  -4   85.02   21.98
 -18 -22   4   92.96   24.80
  18  22  -4  111.91   24.15
 -18  22  -4   63.42   22.28
 -18  22  -4   92.80   23.18
  18  24   4  480.63   87.29
 -18 -24  -4  444.46   87.22
 -18 -24   4  469.82   87.75
  18  24  -4  533.39   87.92
 -18  24  -4  485.98   88.01
 -18  24  -4  436.79   87.97
  18  26   4    3.73   11.49
 -18 -26  -4    6.60   11.89
 -18 -26   4    4.91   14.19
  18  26  -4    3.26   14.91
 -18  26  -4    5.02   17.00
 -18  26  -4   -1.19   13.26
  18  28   4   21.62   13.01
 -18 -28  -4    4.86   14.03
 -18 -28   4   16.46   15.17
  18  28  -4   17.53   15.36
 -18  28  -4    3.32   18.49
 -18  28  -4   15.06   17.38
  18  30   4    2.63   11.58
 -18 -30  -4   17.97   14.49
 -18 -30   4    9.12   14.75
  18  30  -4    7.74   15.52
 -18  30  -4   22.57   16.25
 -18  30  -4   18.43   15.32
  18  32   4   28.31   13.24
 -18 -32  -4   52.97   15.12
 -18 -32   4   62.57   21.83
  18  32  -4   42.67   20.11
 -18  32  -4   76.95   23.29
 -18  32  -4   15.53   18.62
 -18 -34  -4  670.03   95.39
  18  34   4  743.12  123.69
 -18 -34   4  812.81  124.91
  18  34  -4  872.05  124.47
 -18  34  -4  708.41  125.12
 -18  34  -4  204.43  123.47
  18  36   4  237.93   42.37
 -18 -36  -4  226.87   42.47
 -18 -36   4  265.88   45.28
  18  36  -4  247.08   43.51
 -18  36  -4  189.06   42.85
 -18  36  -4   44.50   41.15
  20   0   4 4034.39  682.84
 -20   0  -4 3699.86  682.76
  20   2   4  416.96   80.55
 -20  -2  -4  404.94   80.37
 -20  -2   4  524.66   80.58
  20   2  -4  405.68   80.29
  20   4   4    8.77   13.39
 -20  -4  -4   10.51   11.24
 -20  -4   4   16.33   12.60
  20   4  -4   14.96   11.74
  20   6   4   57.63   14.42
 -20  -6  -4   54.50   15.33
 -20  -6   4   49.88   16.63
  20   6  -4   45.09   16.34
  20   8   4  144.09   32.63
 -20  -8  -4  156.16   32.23
 -20  -8   4  173.35   34.20
  20   8  -4  162.36   32.43
  20  10   4  115.36   23.55
 -20 -10  -4   84.64   23.09
 -20 -10   4   96.85   24.82
  20  10  -4  105.54   22.93
  20  12   4  161.68   32.72
 -20 -12  -4  165.14   32.40
 -20 -12   4  168.12   33.96
  20  12  -4  139.61   31.74
  20  14   4   29.83   14.36
 -20 -14  -4   28.96   13.19
 -20 -14   4   36.82   13.86
  20  14  -4   28.66   12.71
  20  16   4   28.23   11.23
 -20 -16  -4   21.37   12.69
 -20 -16   4   20.67   13.23
  20  16  -4   29.99   12.25
 -20  16  -4   16.99   10.30
 -20  16  -4   19.59   10.75
  20  18   4   71.78   19.68
 -20 -18  -4   73.14   17.86
 -20 -18   4   89.72   19.18
  20  18  -4   53.11   19.38
 -20  18  -4   43.47   17.30
 -20  18  -4   61.09   18.82
  20  20   4   58.50   19.15
 -20 -20  -4   62.59   17.56
 -20 -20   4   82.63   19.40
  20  20  -4   47.81   19.34
 -20  20  -4   56.33   17.15
 -20  20  -4   53.98   17.61
  20  22   4  340.99   56.81
 -20 -22  -4  277.36   55.95
 -20 -22   4  294.20   56.42
  20  22  -4  318.27   56.87
 -20  22  -4  252.83   55.88
 -20  22  -4  290.18   56.35
  20  24   4    7.65   12.18
 -20 -24  -4   26.92   13.02
 -20 -24   4   35.20   14.59
  20  24  -4    5.51   16.06
 -20  24  -4   15.01   15.45
 -20  24  -4   11.61   16.29
  20  26   4   69.36   17.48
 -20 -26  -4   31.45   17.28
 -20 -26   4   35.39   17.08
  20  26  -4   49.08   17.97
 -20  26  -4   27.08   18.83
 -20  26  -4   37.56   19.05
 -20 -28  -4   40.49   14.48
  20  28   4   26.64   17.07
 -20 -28   4   59.48   18.39
  20  28  -4   65.49   18.73
 -20  28  -4   39.84   20.33
 -20  28  -4   24.50   19.86
  20  30   4   57.16   16.14
 -20 -30  -4   50.71   18.24
 -20 -30   4   48.50   20.83
  20  30  -4   85.06   20.86
 -20  30  -4    1.37   21.21
  20  32   4  403.64   66.70
 -20 -32  -4  404.03   67.34
 -20 -32   4  481.72   68.69
  20  32  -4  425.60   68.02
 -20  32  -4    4.82   66.22
  20  34   4   -1.24   11.75
 -20 -34  -4    3.94   15.30
 -20 -34   4   12.48   19.92
  20  34  -4   -2.05   18.19
 -20  34  -4    4.61   20.38
  20  36   4  613.28  118.62
 -20 -36  -4  562.04  118.56
  20  36  -4  768.47  119.51
  22   0   4    1.93    8.81
 -22   0  -4    2.22   11.67
  22   2   4 1860.69  290.20
 -22  -2  -4 1427.15  289.97
 -22  -2   4 1398.42  289.86
  22   2  -4 1823.04  290.11
  22   4   4  156.28   24.90
 -22  -4  -4  110.09   28.67
 -22  -4   4  134.03   29.25
  22   4  -4  142.60   28.90
  22   6   4  109.23   23.03
 -22  -6  -4   67.23   21.26
 -22  -6   4   94.25   22.62
  22   6  -4   97.90   22.42
  22   8   4   73.25   17.15
 -22  -8  -4   38.09   15.84
 -22  -8   4   44.55   19.58
  22   8  -4   61.71   17.03
  22  10   4  315.41   52.58
 -22 -10  -4  240.22   52.00
 -22 -10   4  268.94   52.88
  22  10  -4  271.01   52.05
 -22 -12  -4  107.02   21.21
  22  12  -4  115.48   20.60
  22  12   4  124.85   25.19
 -22 -12   4   87.66   25.33
  22  14   4   10.86   13.51
 -22 -14  -4   29.54   12.94
 -22 -14   4   35.87   13.21
  22  14  -4   -1.27   11.79
  22  16   4   35.58   15.69
 -22 -16  -4   46.56   14.84
 -22 -16   4   46.03   15.29
  22  16  -4   31.12   14.01
  22  18   4   31.38   15.51
 -22 -18  -4   38.91   13.77
 -22 -18   4   22.60   15.33
  22  18  -4   24.96   13.47
 -22  18  -4   29.37   14.29
  22  20   4   24.83   13.64
 -22 -20  -4   57.28   15.16
 -22 -20   4   45.46   16.34
  22  20  -4   19.64   17.18
 -22  20  -4   43.08   13.94
 -22  20  -4   39.05   15.07
  22  22   4   54.25   19.85
 -22 -22  -4   69.23   18.44
 -22 -22   4   91.52   19.93
  22  22  -4   38.20   20.20
 -22  22  -4   48.64   17.16
 -22  22  -4   77.80   20.74
  22  24   4   10.07   14.64
 -22 -24  -4   18.15   14.66
 -22 -24   4   19.36   14.40
  22  24  -4   14.73   16.74
 -22  24  -4    2.02   15.11
 -22  24  -4   15.18   18.46
  22  26   4   59.83   19.48
 -22 -26  -4   64.56   20.01
 -22 -26   4   72.17   21.83
  22  26  -4   80.95   21.37
 -22  26  -4   46.29   23.80
 -22  26  -4   50.34   21.50
  22  28   4    1.92   14.47
 -22 -28  -4   10.62   15.07
 -22 -28   4    8.44   18.64
  22  28  -4    5.00   17.49
 -22  28  -4    9.41   21.03
 -22  28  -4    1.94   15.91
  22  30   4    9.57   13.08
 -22 -30  -4    2.82   15.30
 -22 -30   4    7.88   18.28
  22  30  -4    7.33   17.89
 -22  30  -4   -2.29   16.99
  22  32   4  170.65   34.76
 -22 -32  -4  205.15   36.58
 -22 -32   4  201.44   37.62
  22  32  -4  189.83   37.45
 -22  32  -4  214.07   41.35
 -22  32  -4    8.53   36.99
  22  34   4 1096.34  200.45
 -22 -34  -4 1364.02  201.34
 -22 -34   4 1396.99  202.06
  22  34  -4 1379.09  201.49
 -22  34  -4 1300.63  202.82
 -22  34  -4    2.58  199.35
  24   0   4 3224.32  545.27
 -24   0  -4 2943.22  545.16
  24   2   4  660.75  123.39
 -24  -2  -4  661.74  123.39
 -24  -2   4  671.96  123.29
  24   2  -4  732.45  123.34
  24   4   4   51.67   17.61
 -24  -4  -4   57.32   16.76
 -24  -4   4   43.07   16.86
  24   4  -4   52.33   16.44
 -24  -6   4   68.44   20.23
  24   6   4   88.92   21.48
 -24  -6  -4   80.84   20.12
  24   8   4    9.81   13.23
 -24  -8  -4   31.93   12.79
 -24  -8   4   42.03   18.11
  24   8  -4    7.64   14.62
  24  10   4  246.87   48.05
 -24 -10  -4  252.82   47.75
 -24 -10   4  253.89   48.92
  24  10  -4  240.18   47.86
  24  12   4  266.13   49.56
 -24 -12  -4  275.85   49.56
 -24 -12   4  240.15   50.39
  24  12  -4  246.46   48.87
  24  14   4  189.88   40.25
 -24 -14  -4  202.24   40.20
 -24 -14   4  195.61   40.09
  24  14  -4  215.80   39.64
  24  16   4   22.08   14.39
 -24 -16  -4   33.97   13.85
 -24 -16   4   32.58   14.11
  24  16  -4    9.83   12.73
  24  18   4   26.05   12.30
 -24 -18  -4   37.28   14.10
 -24 -18   4   35.38   15.66
  24  18  -4   26.55   13.94
 -24  18  -4   20.70   14.02
  24  20   4  263.17   53.29
 -24 -20  -4  309.24   52.07
 -24 -20   4  329.92   53.44
  24  20  -4  257.21   52.45
 -24  20  -4  214.57   52.05
 -24  20  -4  276.26   52.66
  24  22   4   34.47   16.74
 -24 -22  -4   38.95   15.79
 -24 -22   4   29.29   18.15
  24  22  -4   32.45   17.63
 -24  22  -4   16.86   15.44
 -24  22  -4   28.87   21.19
  24  24   4   95.49   15.57
 -24 -24  -4   14.71   13.98
 -24 -24   4   20.93   22.38
  24  24  -4   77.73   18.69
 -24  24  -4    4.20   18.28
  24  26   4   84.76   20.15
 -24 -26  -4   73.65   20.02
 -24 -26   4   80.21   22.23
  24  26  -4   66.35   20.85
 -24  26  -4   45.58   20.21
 -24  26  -4   16.15   19.88
  24  28   4   77.45   19.18
 -24 -28  -4   50.20   19.59
 -24 -28   4   59.48   22.65
  24  28  -4   83.47   21.15
 -24  28  -4   29.45   20.37
 -24  28  -4   10.05   19.63
  24  30   4   17.71   15.35
 -24 -30  -4    1.65   16.32
 -24 -30   4   18.22   19.08
  24  30  -4   25.54   18.98
 -24  30  -4    5.94   14.96
 -24  30  -4    3.76   18.10
  24  32   4  425.75   68.27
 -24 -32  -4  438.09   69.55
 -24 -32   4  441.99   70.02
  24  32  -4  507.59   70.17
 -24  32  -4  288.64   69.72
 -24  32  -4    7.72   68.63
  26   0   4    4.69    9.06
 -26   0  -4   -1.71    8.56
  26   2   4  376.57   72.92
 -26  -2  -4  419.65   72.86
 -26  -2   4  368.48   72.74
  26   2  -4  402.83   72.83
  26   4   4   48.43   16.66
 -26  -4  -4   24.99   15.71
 -26  -4   4   33.57   16.48
  26   4  -4   46.96   15.35
 -26  -6  -4   24.87   12.83
  26   6   4   45.80   16.92
 -26  -6   4   46.09   19.78
  26   6  -4   54.21   18.17
  26   8   4   19.59   13.47
 -26  -8  -4   12.06   12.54
 -26  -8   4   32.86   30.81
  26   8  -4   28.30   24.38
  26  10   4  177.71   26.83
 -26 -10  -4   51.72   24.76
 -26 -10   4   65.76   28.38
  26  10  -4  157.89   27.78
  26  12   4  968.12  172.11
 -26 -12  -4  908.39  172.04
 -26 -12   4  946.43  172.01
  26  12  -4 1008.85  171.99
  26  14   4  528.56   95.69
 -26 -14  -4  543.71   95.84
 -26 -14   4  563.46   95.77
  26  14  -4  465.69   95.07
  26  16   4   12.63   10.60
 -26 -16  -4   11.10   13.64
 -26 -16   4    5.78   13.05
  26  16  -4    0.30   12.05
  26  18   4   49.16   18.74
 -26 -18  -4   58.19   17.91
 -26 -18   4   65.81   19.59
  26  18  -4   46.00   17.53
  26  20   4   68.28   18.48
 -26 -20  -4   61.77   17.34
 -26 -20   4   51.90   18.51
  26  20  -4   45.31   16.63
 -26  20  -4   18.63   15.92
 -26  20  -4   22.60   15.39
  26  22   4  776.56  110.37
 -26 -22  -4  588.99  109.14
 -26 -22   4  693.54  110.48
  26  22  -4  613.29  109.51
 -26  22  -4  330.60  109.12
 -26  22  -4  600.09  110.54
  26  24   4  186.10   35.12
 -26 -24  -4  181.35   34.75
 -26 -24   4  188.25   37.03
  26  24  -4  169.43   35.06
 -26  24  -4  102.14   35.36
 -26  24  -4  138.72   39.08
  26  26   4  121.10   24.61
 -26 -26  -4  118.37   24.67
 -26 -26   4  118.74   26.61
  26  26  -4  116.28   25.28
 -26  26  -4   55.74   27.55
 -26  26  -4   17.95   23.96
  26  28   4    4.11   14.96
 -26 -28  -4   -1.03   15.80
 -26 -28   4   11.67   18.80
  26  28  -4   10.30   16.54
 -26  28  -4    9.68   21.79
 -26  28  -4   -6.20   17.15
 -26 -30  -4   35.55   14.53
  26  30   4   33.01   17.12
 -26 -30   4   42.05   20.96
  26  30  -4   42.20   16.05
 -26  30  -4   22.84   23.04
 -26  30  -4    1.50   16.69
  28   0   4  233.25   55.40
 -28   0  -4  349.78   55.83
  28   2   4   58.51   18.50
 -28  -2  -4   49.37   17.24
 -28  -2   4   39.65   17.54
  28   2  -4   59.97   17.67
  28   4   4   58.98   19.11
 -28  -4  -4   59.28   18.66
 -28  -4   4   53.90   19.03
  28   4  -4   67.13   18.29
  28   6   4   41.48   14.74
 -28  -6  -4   47.00   17.06
 -28  -6   4   53.67   22.55
  28   6  -4   54.05   18.43
  28   8   4   22.93   15.98
 -28  -8  -4   54.18   15.98
 -28  -8   4   94.26   24.47
  28   8  -4   17.68   19.86
 -28 -10  -4  192.66   33.74
  28  10   4  191.89   40.92
 -28 -10   4  267.45   43.61
  28  10  -4  189.51   41.44
  28  12   4  845.62  111.50
 -28 -12  -4  781.37  145.35
 -28 -12   4  816.60  145.40
  28  12  -4  785.04  145.21
  28  14   4  550.52   94.18
 -28 -14  -4  472.95   93.98
 -28 -14   4  513.03   93.60
  28  14  -4  506.95   93.72
  28  16   4   41.03   18.10
 -28 -16  -4   61.31   18.31
 -28 -16   4   62.44   17.92
  28  16  -4   35.08   14.44
  28  18   4   27.40   12.99
 -28 -18  -4   35.74   16.16
 -28 -18   4   30.35   16.93
  28  18  -4   22.10   15.07
  28  20   4  598.06   98.62
 -28 -20  -4  489.83   98.18
 -28 -20   4  558.60   98.70
  28  20  -4  500.95   97.87
  28  22   4  245.82   41.39
 -28 -22  -4  237.44   40.74
 -28 -22   4  196.36   41.77
  28  22  -4  192.46   40.03
 -28  22  -4   98.84   39.82
 -28  22  -4  205.73   42.55
  28  24   4  318.42   48.37
 -28 -24  -4  233.69   47.60
 -28 -24   4  273.88   49.56
  28  24  -4  298.45   47.78
 -28  24  -4  112.13   47.56
 -28  24  -4  182.78   51.05
 -28 -26  -4   12.22   11.34
 -28 -26   4    9.69   14.37
  28  26   4   -2.60   15.10
  28  26  -4    4.83   16.31
 -28  26  -4   -8.24   16.64
  28  28   4   44.52   17.42
 -28 -28  -4   36.65   17.97
 -28 -28   4   39.04   20.92
  28  28  -4   53.74   19.19
 -28  28  -4   10.38   21.91
 -28  28  -4  -10.26   19.43
  30   0   4   -2.94   14.51
 -30   0  -4   -2.42   14.58
  30   2   4   16.72   14.96
 -30  -2  -4    4.28   15.57
 -30  -2   4   20.18   15.74
  30   2  -4   16.26   15.67
  30   4   4    9.94   15.68
 -30  -4  -4   50.90   17.51
 -30  -4   4   39.51   17.61
  30   4  -4   11.47   15.90
  30   6   4   28.80   14.85
 -30  -6  -4   -5.78   16.53
 -30  -6   4    4.60   17.70
  30   6  -4   13.29   14.74
  30   8   4   72.24   23.54
 -30  -8  -4  117.70   25.10
 -30  -8   4  118.39   27.13
  30   8  -4   90.20   24.64
  30  10   4  235.07   39.07
 -30 -10  -4  139.86   38.25
 -30 -10   4  150.86   39.65
  30  10  -4  229.45   39.15
  30  12   4  408.46   73.94
 -30 -12  -4  403.55   73.92
 -30 -12   4  381.87   73.87
  30  12  -4  389.45   73.76
  30  14   4  668.94  114.18
 -30 -14  -4  642.07  114.06
 -30 -14   4  587.93  113.99
  30  14  -4  604.28  113.77
  30  16   4   78.41   20.19
 -30 -16  -4   54.18   19.77
 -30 -16   4   56.16   19.60
  30  16  -4   58.74   19.48
  30  18   4   61.88   19.13
 -30 -18  -4   39.88   18.96
 -30 -18   4   47.84   19.73
  30  18  -4   55.02   18.28
  30  20   4  271.53   42.00
 -30 -20  -4  219.33   50.93
 -30 -20   4  241.15   51.57
  30  20  -4  298.01   50.94
  30  22   4 1470.67  228.51
 -30 -22  -4 1271.94  228.26
 -30 -22   4 1385.53  228.65
  30  22  -4 1230.64  227.79
 -30  22  -4 1009.72  227.88
  30  24   4   -1.95   16.20
 -30 -24  -4    0.83   15.45
 -30 -24   4    9.12   19.88
  30  24  -4    8.34   14.90
 -30  24  -4    2.47   17.55
 -30  24  -4   16.92   24.15
  32   0   4    6.71   17.35
 -32   0  -4   73.53   18.54
  32   2   4  128.73   23.24
 -32  -2  -4   85.41   27.17
 -32  -2   4   95.56   27.83
  32   2  -4  141.02   28.07
  32   4   4   31.75   15.90
 -32  -4  -4   21.60   17.15
 -32  -4   4   19.89   18.68
  32   4  -4   20.00   16.65
  32   6   4   11.55   15.02
 -32  -6  -4   16.05   17.04
 -32  -6   4    6.09   18.24
  32   6  -4   15.22   15.72
  32   8   4   44.67   16.83
 -32  -8  -4   48.55   19.88
 -32  -8   4   41.51   20.15
  32   8  -4   50.79   18.28
 -32 -10   4  131.08   25.23
  32  10  -4  117.81   24.07
  32  10   4  111.12   27.55
 -32 -10  -4  121.76   27.83
  32  12   4  925.77  143.90
 -32 -12  -4  736.85  143.57
 -32 -12   4  750.32  143.64
  32  12  -4  764.31  143.47
  32  14   4  216.96   41.38
 -32 -14  -4  182.44   40.60
 -32 -14   4  156.07   40.73
  32  14  -4  236.48   41.13
  32  16   4   47.10   18.46
 -32 -16  -4   43.40   17.80
 -32 -16   4   46.92   18.85
  32  16  -4   48.33   18.12
  32  18   4   70.78   20.26
 -32 -18  -4   49.34   20.18
 -32 -18   4   45.36   20.73
  32  18  -4   64.32   19.72
  32  20   4  365.45   64.54
 -32 -20  -4  321.43   64.57
 -32 -20   4  332.07   64.60
  32  20  -4  321.74   63.74
  32  22   4  118.74   22.65
 -32 -22  -4   74.38   25.77
 -32 -22   4   82.37   27.64
  32  22  -4  109.05   25.34
  34   0   4    3.68   15.75
 -34   0  -4    9.79   16.09
  34   2   4    6.44   16.06
 -34  -2  -4   39.72   17.00
 -34  -2   4   32.22   17.90
  34   2  -4    5.56   16.93
  34   4   4   -3.73   15.75
 -34  -4  -4   30.56   17.32
 -34  -4   4   47.50   20.04
  34   4  -4   12.10   16.66
  34   6   4   15.58   15.29
 -34  -6  -4   10.43   16.95
 -34  -6   4    9.91   18.61
  34   6  -4    8.46   16.20
  34   8   4  216.89   47.87
 -34  -8  -4  245.12   49.70
 -34  -8   4  256.37   49.37
  34   8  -4  257.71   48.57
  34  10   4  778.04  133.64
 -34 -10  -4  731.93  134.26
 -34 -10   4  680.90  133.69
  34  10  -4  752.79  133.60
  34  12   4   73.76   18.72
 -34 -12   4   83.57   19.37
  34  12  -4   69.47   18.93
 -34 -12  -4   88.08   22.33
  34  14   4   53.39   19.52
 -34 -14  -4   51.55   18.41
 -34 -14   4   45.81   19.14
  34  14  -4   53.18   19.19
 -34 -16  -4   44.14   15.21
  34  16   4   49.19   18.95
 -34 -16   4   45.66   19.18
  34  16  -4   43.94   18.76
  34  18   4    4.78   15.90
 -34 -18  -4   14.53   15.21
 -34 -18   4    7.63   17.05
  34  18  -4   -0.16   15.54
  36   0   4  175.39   31.64
 -36   0  -4   87.45   31.04
  36   2   4   62.51   18.45
 -36  -2  -4   20.51   18.48
 -36  -2   4    8.45   19.10
  36   2  -4   43.23   19.28
 -36  -4   4   46.86   16.89
  36   4  -4   35.47   15.14
  36   4   4   27.44   17.52
 -36  -4  -4   24.96   18.22
  36   6   4   19.41   16.34
 -36  -6  -4   13.97   13.23
 -36  -6   4   11.06   18.71
  36   6  -4   20.99   17.39
  36   8   4  228.03   38.36
 -36  -8  -4  242.57   48.32
 -36  -8   4  216.77   48.00
  36   8  -4  248.47   47.45
  36  10   4  424.41   84.99
 -36 -10  -4  511.42   86.60
 -36 -10   4  399.69   85.09
  36  10  -4  499.88   85.53
  36  12   4  242.40   46.61
 -36 -12  -4  250.07   47.92
 -36 -12   4  190.25   46.80
  36  12  -4  241.98   47.10
   1   1   5   22.34   15.98
  -1  -1  -5   43.26   17.20
  -1  -1   5   54.48   18.02
   1   1  -5   24.82   16.06
   1  -1  -5   27.62   14.29
  -1   1   5   47.24   16.13
  -1   1  -5   48.11   17.15
   1  -1   5   19.64   14.00
   1   3   5   19.72   12.77
  -1  -3  -5   33.77   16.32
  -1  -3   5   33.99   14.87
   1   3  -5   28.18   17.39
   1  -3  -5   13.29   13.83
  -1   3   5   48.44   13.51
  -1   3  -5   53.12   15.97
   1  -3   5   12.97   13.51
   1   5   5   25.06   20.01
  -1  -5  -5  131.89   25.56
  -1  -5   5  125.59   20.80
   1   5  -5   45.22   22.31
   1  -5  -5   26.22   20.35
  -1   5   5  125.52   21.45
  -1   5  -5  146.99   24.76
   1  -5   5   32.94   18.84
   1   7   5  160.76   27.47
  -1  -7   5   64.26   27.89
   1   7  -5  168.84   28.53
   1  -7  -5  146.72   27.55
  -1   7   5   55.67   28.42
  -1   7  -5   88.54   30.07
   1  -7   5  153.87   28.53
   1   9   5    5.38   15.05
  -1  -9  -5   10.31   10.78
  -1  -9   5   15.17   15.17
   1   9  -5   13.30   14.27
   1  -9  -5    0.64   14.08
  -1   9   5   18.90   13.66
  -1   9  -5    7.13   12.60
   1  -9   5   15.69   15.35
   1  11   5   90.83   19.24
  -1 -11  -5   56.80   19.75
  -1 -11   5   43.80   19.43
   1  11  -5   82.66   20.93
   1 -11  -5   62.74   19.88
  -1  11   5   43.10   20.74
  -1  11  -5   53.12   17.06
   1 -11   5   78.27   18.63
   1  13   5   27.24   19.31
  -1 -13  -5   58.34   19.96
  -1 -13   5   32.77   17.80
   1  13  -5   63.71   21.58
   1 -13  -5   56.62   18.14
  -1  13   5   24.86   17.89
  -1  13  -5   35.51   19.39
   1 -13   5   55.41   15.99
   1  15   5  425.05   76.23
  -1 -15  -5  387.93   76.41
  -1 -15   5  385.70   75.92
   1  15  -5  471.70   77.50
   1 -15  -5  416.64   76.27
  -1  15  -5  360.83   76.15
   1 -15   5  409.56   75.42
   1  17   5 1402.68  269.30
  -1 -17  -5 1489.29  269.32
  -1 -17   5 1562.44  269.55
   1  17  -5 1595.62  270.04
   1 -17  -5 1546.35  269.68
  -1  17   5 1549.59  269.86
  -1  17  -5 1457.82  269.42
   1 -17   5 1533.27  269.17
   1  19   5  666.43  118.49
  -1 -19  -5  594.22  118.60
  -1 -19   5  664.32  119.06
   1  19  -5  778.85  119.59
   1 -19  -5  713.36  119.15
   1 -19  -5  619.79  117.90
  -1  19   5  634.60  118.40
  -1  19  -5  575.24  118.05
   1 -19   5  637.46  117.75
   1  21   5   45.95   16.66
  -1 -21  -5   51.24   18.91
  -1 -21   5   42.03   20.28
   1  21  -5   42.03   22.72
   1 -21  -5   50.49   22.38
   1 -21  -5   38.21   18.38
  -1  21   5   54.33   19.96
  -1  21  -5   48.41   21.19
   1 -21   5   31.10   15.77
   1  23   5   72.46   22.45
  -1 -23  -5   61.87   21.06
  -1 -23   5   66.41   24.35
   1  23  -5   99.12   26.11
   1  23  -5   86.64   21.16
   1 -23  -5   75.77   25.55
   1 -23  -5   67.54   22.83
  -1  23  -5   62.77   21.04
   1 -23   5   83.29   20.40
   1  25   5   58.02   20.18
  -1 -25  -5   75.63   19.04
  -1 -25   5   64.07   19.97
   1  25  -5   62.89   24.70
   1  25  -5   35.85   18.46
   1 -25  -5   54.96   23.65
   1 -25  -5   51.69   21.80
  -1  25  -5   51.02   18.70
   1 -25   5   37.19   19.94
   1  27   5  228.92   43.44
  -1 -27  -5  200.89   43.56
   1  27  -5  237.42   44.56
   1  27  -5  213.35   44.20
   1 -27  -5  236.57   46.52
   1 -27  -5  203.54   44.95
  -1  27  -5  214.50   44.84
   1 -27   5  200.84   43.16
   1  29   5  136.25   28.41
  -1 -29  -5   88.03   28.36
   1  29  -5  144.69   32.67
   1  29  -5  149.85   32.50
   1 -29  -5  129.69   32.40
   1 -29  -5  129.88   30.50
  -1  29  -5   77.81   28.12
   1 -29   5  127.64   28.40
   3   1   5   17.82   17.02
  -3  -1  -5   34.45   14.13
  -3  -1   5   27.28   15.21
   3   1  -5   35.03   15.23
   3  -1  -5   19.35   12.01
  -3   1   5   18.53   11.90
  -3   1  -5   26.36   14.43
   3  -1   5   21.82   13.83
   3   3   5   69.51   22.19
  -3  -3  -5  111.49   23.68
  -3  -3   5  103.95   21.39
   3   3  -5   81.31   21.48
   3  -3  -5   43.69   19.08
  -3   3   5   84.90   19.87
  -3   3  -5   95.00   21.14
   3  -3   5   57.59   19.39
   3   5   5  366.00   52.73
  -3  -5  -5  244.19   54.90
  -3  -5   5  208.15   52.11
   3   5  -5  384.00   53.72
   3  -5  -5  304.62   51.93
  -3   5   5  185.97   51.98
  -3   5  -5  186.88   51.91
   3  -5   5  303.69   52.46
  -3  -7   5  194.27   35.09
   3   7  -5  142.02   35.43
   3  -7  -5   96.04   34.20
  -3   7   5  208.34   35.23
  -3   7  -5  275.75   39.11
   3  -7   5  115.59   34.57
   3   9   5    7.14   11.23
  -3  -9  -5    3.24   10.81
   3   9  -5    9.04   16.19
   3  -9  -5   15.96   13.92
  -3   9  -5    4.91   11.95
   3  -9   5    8.22   14.00
   3  11   5   60.87   19.46
  -3 -11  -5   50.34   19.65
  -3 -11   5   57.79   20.13
   3  11  -5   74.36   23.51
  -3  11   5   48.99   17.98
  -3  11  -5   57.00   17.56
   3 -11   5   66.01   18.82
   3  13   5   31.85   14.97
  -3 -13  -5   22.65   18.24
  -3 -13   5   14.44   15.75
   3  13  -5   16.85   21.09
   3 -13  -5   19.98   15.94
  -3  13   5   14.19   15.18
  -3  13  -5   11.64   14.26
   3 -13   5   21.37   14.94
   3  15   5  509.45   87.15
  -3 -15  -5  464.93   87.12
  -3 -15   5  488.25   87.71
   3  15  -5  555.25   88.81
   3 -15  -5  468.71   87.09
  -3  15   5  437.90   86.92
  -3  15  -5  440.17   87.35
   3 -15   5  424.81   86.70
   3  17   5 1013.08  158.68
  -3 -17  -5  848.60  158.18
  -3 -17   5  785.27  158.25
   3  17  -5 1044.86  159.46
   3 -17  -5  927.92  158.48
   3 -17  -5  712.56  157.30
  -3  17  -5  795.40  158.24
   3 -17   5  938.53  157.85
   3  19   5  211.34   42.13
  -3 -19  -5  218.85   41.45
   3 -19  -5  224.24   44.71
   3 -19  -5  173.65   40.35
  -3  19  -5  218.79   42.73
   3 -19   5  174.32   39.99
   3  21   5   17.58   17.89
  -3 -21  -5   30.86   17.05
  -3 -21   5   13.24   21.91
   3  21  -5   19.82   22.27
   3 -21  -5   21.49   18.50
   3 -21  -5   21.20   16.06
  -3  21  -5   17.08   15.36
   3 -21   5   17.58   15.62
   3  23   5   33.31   19.01
  -3 -23  -5   16.41   16.75
  -3 -23   5   19.26   19.33
   3  23  -5   44.12   18.77
   3 -23  -5   29.04   20.09
  -3  23  -5   16.84   15.29
   3 -23   5   27.26   14.19
   3  25   5   69.62   21.92
  -3 -25  -5   49.26   19.89
  -3 -25   5   53.42   24.87
   3  25  -5   86.48   25.05
   3  25  -5   63.12   22.99
   3 -25  -5   72.26   24.33
   3 -25  -5   68.38   22.08
  -3  25  -5   56.12   22.00
   3 -25   5   54.90   18.95
   3  27   5  334.68   53.34
  -3 -27  -5  184.11   52.89
  -3 -27   5  184.42   54.97
   3  27  -5  320.51   55.59
   3  27  -5  355.58   54.01
   3 -27  -5  326.62   55.74
   3 -27  -5  263.06   54.35
  -3  27  -5  171.63   52.66
   3 -27   5  314.30   54.36
   3  29   5  213.89   41.28
  -3 -29  -5  324.49   47.14
   3  29  -5  153.04   43.46
   3  29  -5  166.68   41.42
   3 -29  -5  179.40   43.82
   3 -29  -5  131.10   41.12
  -3  29  -5  260.57   41.44
   3 -29   5  159.57   40.55
   5   1   5   15.90   15.04
  -5  -1  -5   21.47   13.44
  -5  -1   5   15.97   17.51
   5   1  -5   10.22   14.71
   5  -1  -5    1.23   11.17
  -5   1   5   16.47   11.82
  -5   1  -5   12.28   12.63
   5  -1   5   18.91   11.70
   5   3   5   68.53   20.18
  -5  -3  -5   66.00   21.32
  -5  -3   5   44.27   20.13
   5   3  -5   66.19   16.53
   5  -3  -5   43.82   14.63
  -5   3   5   44.06   16.28
  -5   3  -5   27.09   16.49
   5  -3   5   36.67   15.56
   5   5   5  527.42   98.24
  -5  -5  -5  850.86  100.02
  -5  -5   5  680.94   98.41
   5   5  -5  500.88   98.47
   5  -5  -5  269.85   96.84
  -5   5   5  513.28   97.65
  -5   5  -5  687.14   98.37
   5  -5   5  356.32   97.32
   5   7   5  535.18   72.50
  -5  -7  -5  309.99   72.18
  -5  -7   5  276.99   71.73
   5   7  -5  547.79   73.38
  -5   7   5  253.17   71.12
  -5   7  -5  281.39   71.71
   5  -7   5  473.04   71.57
   5   9   5   36.68   14.49
  -5  -9  -5   58.00   16.30
  -5  -9   5   48.92   17.92
   5   9  -5   42.30   18.60
   5  -9  -5   17.45   12.94
  -5   9  -5   27.70   15.69
   5  11   5   33.97   13.49
  -5 -11  -5    9.15   16.11
  -5 -11   5   22.84   14.85
   5  11  -5   47.05   18.37
   5 -11  -5   33.76   13.42
  -5  11   5   20.94   14.07
  -5  11  -5    9.58   13.04
   5 -11   5   33.74   13.91
   5  13   5   14.15   12.59
  -5 -13  -5   21.75   15.57
  -5 -13   5   31.18   16.87
   5  13  -5   20.00   21.52
   5 -13  -5   19.43   13.22
   5 -13  -5    6.96   10.51
  -5  13  -5   24.38   16.41
   5 -13   5   21.12   13.65
   5  15   5  158.62   25.85
  -5 -15  -5   73.66   24.94
  -5 -15   5   60.96   26.09
   5  15  -5  132.87   30.29
   5 -15  -5   92.58   24.63
   5 -15  -5  105.76   23.32
   5 -15   5   95.05   23.07
   5  17   5  516.84   87.52
  -5 -17  -5  515.45   86.93
  -5 -17   5  543.63   87.84
   5  17  -5  442.45   87.30
   5 -17  -5  373.80   85.49
  -5  17  -5  509.16   87.18
   5 -17   5  393.13   86.23
   5  19   5  207.17   36.49
  -5 -19  -5  179.67   38.05
  -5 -19   5  155.27   35.88
   5  19  -5  188.79   39.70
   5 -19  -5  176.96   36.73
   5 -19  -5  108.72   34.11
  -5  19  -5  162.77   37.48
   5 -19   5  191.95   35.06
   5  21   5   16.35   15.13
  -5 -21  -5   25.84   20.04
  -5 -21   5   32.53   20.99
   5  21  -5   23.95   18.64
   5 -21  -5   12.63   20.79
   5 -21  -5    6.43   11.59
  -5  21  -5   19.82   15.37
   5 -21   5   11.78   15.61
   5  23   5   64.72   19.17
  -5 -23  -5   55.09   23.01
  -5 -23   5   43.40   26.00
   5  23  -5   68.71   22.29
   5 -23  -5   54.79   24.30
   5 -23  -5   42.25   17.44
  -5  23  -5   47.64   20.76
   5 -23   5   62.97   17.95
   5  25   5   38.84   16.55
  -5 -25  -5   51.56   16.69
  -5 -25   5   25.51   20.80
   5  25  -5    1.74   21.16
   5 -25  -5   11.81   21.74
   5 -25  -5    8.00   15.66
  -5  25  -5   48.92   16.13
   5 -25   5   29.14   17.38
   5  27   5  233.06   53.27
  -5 -27  -5  400.01   56.58
  -5 -27   5  355.99   56.50
   5  27  -5  235.65   55.17
   5  27  -5  266.98   53.84
   5 -27  -5  189.91   56.43
  -5  27  -5  288.22   54.36
   5 -27   5  229.14   53.24
   5  29   5  575.16   91.68
  -5 -29  -5  453.80   93.75
  -5 -29   5  426.30   91.87
   5  29  -5  546.63   92.03
   5  29  -5  581.81   91.86
   5 -29  -5  603.46   94.22
   5 -29  -5  275.11   90.81
  -5  29  -5  391.33   92.41
   5 -29   5  583.09   92.05
   7   1  -5  126.74   25.44
  -7   1  -5   56.14   21.06
   7   3   5  261.72   42.72
  -7  -3  -5  237.18   43.17
  -7  -3   5  257.92   42.67
   7   3  -5  209.99   41.63
   7  -3  -5  111.86   39.24
   7  -3   5  193.43   40.31
   7   5   5 1329.28  202.61
  -7  -5  -5 1232.41  202.77
  -7  -5   5 1061.66  202.19
   7   5  -5 1315.56  202.10
  -7   5  -5  734.12  201.19
   7  -5   5 1112.96  201.21
   7   7   5  577.72   92.58
  -7  -7   5  582.37   92.30
   7   7  -5  584.86   93.81
  -7   7  -5  468.31   91.77
   7  -7   5  333.83   91.18
   7   9   5   38.74   15.74
  -7  -9  -5   37.32   13.82
  -7  -9   5   39.45   16.27
   7   9  -5   29.26   19.10
  -7   9  -5   37.28   14.61
   7  -9   5   22.86   12.61
   7  11   5   73.06   20.40
  -7 -11  -5   84.84   20.27
  -7 -11   5   98.36   22.13
   7  11  -5   97.05   24.17
  -7  11  -5   63.88   20.44
   7 -11   5   62.39   18.84
   7  13   5   63.15   20.39
  -7 -13  -5   80.67   20.90
  -7 -13   5   87.75   22.74
   7  13  -5   58.98   25.91
  -7  13  -5   49.37   19.81
   7 -13   5   59.24   18.34
   7  15   5  221.81   52.06
  -7 -15  -5  326.67   53.50
  -7 -15   5  278.97   52.96
   7  15  -5  329.32   54.32
  -7  15  -5  262.11   53.19
   7 -15   5  233.93   52.24
   7  17   5   72.59   20.59
  -7 -17  -5   42.36   22.28
   7  17  -5  102.50   26.28
  -7  17  -5   52.17   21.41
   7 -17   5   54.87   19.60
   7  19   5   42.81   18.18
  -7 -19  -5   39.26   18.30
  -7 -19   5   60.43   21.43
   7  19  -5   44.00   24.28
  -7  19  -5   49.76   20.62
   7 -19   5   37.66   17.39
   7  21   5   46.25   20.56
  -7 -21  -5   29.31   17.51
  -7 -21   5   30.22   19.57
   7  21  -5   30.49   19.69
  -7  21  -5   18.38   18.81
   7 -21   5   23.89   12.80
   7  23   5   11.54   18.80
  -7 -23  -5    3.59   16.62
   7  23  -5    5.90   18.40
   7 -23  -5  -13.47   16.61
  -7  23  -5    4.08   15.43
   7 -23   5   18.22   16.14
   7  25   5   82.14   20.95
  -7 -25  -5   54.27   21.13
  -7 -25   5   61.62   28.16
   7  25  -5   63.46   23.13
  -7  25  -5   41.34   23.55
   7 -25   5   85.95   21.70
   7  27   5  165.82   29.71
  -7 -27  -5  102.92   32.62
  -7 -27   5   77.66   32.24
   7  27  -5  155.87   30.59
   7 -27  -5  140.19   33.19
  -7  27  -5   75.91   32.00
   7 -27   5  153.80   28.83
   7  29   5  287.07   64.58
  -7 -29  -5  478.88   67.72
  -7 -29   5  484.68   67.07
   7  29  -5  315.08   65.48
   7  29  -5  331.14   65.16
   7 -29  -5  259.02   66.19
   7 -29  -5  166.62   64.09
  -7  29  -5  507.51   69.53
  -7  29  -5  368.85   66.06
   7 -29   5  219.01   63.77
   9   1   5   29.85   16.09
  -9  -1  -5   12.51   14.29
  -9  -1   5   15.67   15.58
   9   1  -5   21.02   17.03
   9   3   5  250.42   48.86
  -9  -3  -5  219.05   50.69
  -9  -3   5  221.93   48.62
   9   3  -5  291.38   48.13
   9   5   5  797.50  128.10
  -9  -5  -5  970.16  129.13
  -9  -5   5  895.50  128.00
   9   5  -5  792.83  127.99
  -9   5  -5  338.01  125.56
   9  -5   5  476.48  125.59
   9   7   5  479.97   78.56
  -9  -7  -5  407.39   78.61
  -9  -7   5  386.92   77.75
   9   7  -5  530.57   79.34
   9  -7   5  310.48   76.71
   9   9   5   20.00   18.00
  -9  -9  -5   22.03   12.87
  -9  -9   5   16.80   12.93
   9   9  -5   31.97   18.89
  -9   9  -5   21.64   13.05
   9  -9   5   19.53   11.53
   9  11   5   11.71   13.93
  -9 -11  -5   14.58   12.07
  -9 -11   5    3.13   16.77
   9  11  -5   11.52   21.92
   9 -11   5    2.46   11.53
   9  13   5   13.22   12.79
  -9 -13  -5    4.97   15.41
  -9 -13   5    4.05   14.92
   9  13  -5   16.37   18.06
  -9  13  -5    3.01   12.64
   9 -13   5    9.66   10.83
   9  15   5    3.45   12.44
  -9 -15  -5   17.29   15.34
  -9 -15   5   14.81   14.57
   9  15  -5    5.10   17.85
  -9  15  -5   10.11   15.43
   9 -15   5    4.90   12.23
   9  17   5    3.57   12.73
  -9 -17  -5    4.56   14.76
  -9 -17   5   18.51   17.65
   9  17  -5   12.96   22.36
  -9  17  -5    4.15   18.13
   9 -17   5   -4.01   13.43
   9  19   5   10.08   15.86
  -9 -19  -5   19.95   16.23
  -9 -19   5    5.82   18.47
   9  19  -5   21.03   22.63
  -9  19  -5    7.29   19.82
   9 -19   5    1.75   14.11
   9  21   5   16.14   16.35
  -9 -21  -5   -1.04   16.30
  -9 -21   5   15.14   19.41
   9  21  -5   27.77   18.95
  -9  21  -5   12.98   22.11
  -9  21  -5    5.21   19.78
   9 -21   5   20.28   12.63
   9  23   5   41.77   19.15
  -9 -23  -5   54.72   19.84
  -9 -23   5   57.28   21.50
   9  23  -5   34.43   20.62
  -9  23  -5   65.03   25.60
  -9  23  -5   24.48   21.25
   9 -23   5   41.73   17.02
   9  25   5    0.85   19.11
  -9 -25  -5   10.49   21.23
  -9 -25   5   10.41   23.99
   9  25  -5    2.25   18.47
  -9  25  -5    5.60   24.20
  -9  25  -5   -0.20   19.29
   9 -25   5    4.97   15.55
   9  27   5  207.41   44.66
  -9 -27  -5  286.12   46.72
  -9 -27   5  200.18   43.96
   9  27  -5  162.98   45.35
  -9  27  -5  262.85   48.80
  -9  27  -5  202.17   44.35
   9 -27   5  178.64   43.40
  11   1   5  128.91   27.70
 -11  -1  -5   92.08   27.04
 -11  -1   5   93.75   27.78
  11   1  -5  108.21   25.30
  11   3   5  259.97   46.45
 -11  -3  -5  195.33   48.23
 -11  -3   5  230.71   46.20
  11   3  -5  227.98   46.72
  11   5   5 1318.59  231.73
 -11  -5  -5 1269.53  231.82
 -11  -5   5 1144.43  231.14
  11   5  -5 1449.12  231.59
  11   7   5  705.36  115.69
 -11  -7  -5  597.61  115.42
 -11  -7   5  566.33  114.90
  11   7  -5  664.81  116.57
  11   9   5   18.57   17.48
 -11  -9  -5    4.23   11.94
 -11  -9   5   -3.43   11.91
  11   9  -5    3.56   18.27
 -11   9  -5    6.09   11.88
 -11   9  -5    7.70   10.94
  11  11   5   75.46   19.66
 -11 -11  -5   75.31   17.91
 -11 -11   5   71.48   18.11
  11  11  -5   74.93   26.15
 -11  11  -5   36.90   17.38
  11 -11   5   32.63   15.37
  11  13   5   52.31   16.48
 -11 -13  -5   39.86   17.74
 -11 -13   5   38.31   20.26
  11  13  -5   39.28   20.08
 -11  13  -5   34.70   17.31
 -11  13  -5   11.20   15.06
  11 -13   5   26.35   12.99
  11  15   5   44.82   16.33
 -11 -15  -5   37.43   18.42
 -11 -15   5   33.49   20.96
  11  15  -5   80.22   21.11
 -11  15  -5   22.85   19.68
 -11  15  -5   30.95   18.41
  11 -15   5   45.25   14.99
  11  17   5   27.33   14.95
 -11 -17  -5   33.99   17.04
 -11 -17   5   23.41   19.15
  11  17  -5   43.93   19.89
 -11  17  -5   24.47   18.05
  11 -17   5   33.63   16.76
  11  19   5  103.27   25.46
 -11 -19  -5  120.52   26.99
  11  19  -5  105.75   28.96
 -11  19  -5  114.24   29.67
 -11  19  -5  102.11   29.21
  11 -19   5  107.15   26.83
  11  21   5   29.51   17.76
 -11 -21  -5   21.01   17.48
 -11 -21   5   23.95   20.61
  11  21  -5   45.66   24.01
 -11  21  -5   27.07   18.31
 -11  21  -5   12.58   21.38
  11  23   5   18.48   16.87
 -11 -23  -5   28.80   20.91
 -11 -23   5   15.44   20.20
  11  23  -5    3.80   18.89
 -11  23  -5   29.84   22.19
 -11  23  -5   14.26   16.37
  11  25   5   52.57   19.74
 -11 -25  -5   52.23   24.02
 -11 -25   5   38.26   23.85
  11  25  -5   53.01   22.03
 -11  25  -5   40.85   23.86
 -11  25  -5   41.12   22.41
  11  27   5  141.19   35.47
 -11 -27  -5  216.74   39.59
 -11 -27   5  189.13   38.81
  11  27  -5  120.68   37.22
 -11  27  -5  146.85   39.28
 -11  27  -5  170.81   36.86
  13   1   5  113.22   24.20
 -13  -1  -5   82.03   23.50
 -13  -1   5   73.46   24.16
  13   1  -5   98.28   25.18
  13   3   5  156.34   33.67
 -13  -3  -5  131.31   35.32
 -13  -3   5  116.08   31.81
  13   3  -5  155.99   32.97
  13   5   5  906.67  140.16
 -13  -5  -5  671.27  140.19
 -13  -5   5  638.44  139.45
  13   5  -5  866.86  140.24
  13   7   5  875.24  167.67
 -13  -7  -5 1034.68  168.06
 -13  -7   5  951.80  167.68
  13   7  -5  871.52  167.93
  13   9   5  118.74   26.22
 -13  -9  -5   82.57   23.65
 -13  -9   5   85.87   23.79
  13   9  -5  116.86   27.77
  13  11   5  112.81   27.16
 -13 -11  -5  109.39   25.70
 -13 -11   5  108.42   25.89
  13  11  -5  120.76   29.57
  13  13   5   58.29   18.64
 -13 -13  -5   70.18   18.35
 -13 -13   5   53.47   18.97
  13  13  -5   50.56   25.35
 -13  13  -5   11.97   16.34
  13  15   5   75.02   23.69
 -13 -15  -5  135.06   25.77
 -13 -15   5  132.80   25.51
  13  15  -5   67.08   26.84
 -13  15  -5   66.19   23.28
  13  17   5  156.81   22.35
 -13 -17  -5   36.45   22.12
 -13 -17   5   37.57   21.80
  13  17  -5  175.32   26.07
 -13  17  -5   17.04   22.15
 -13  17  -5   32.37   22.00
  13  19   5   20.49   14.50
 -13 -19  -5   35.36   16.75
 -13 -19   5   25.93   16.29
  13  19  -5    9.43   19.66
 -13  19  -5   27.93   19.53
  13  21   5   41.62   16.80
 -13 -21  -5   49.22   21.74
 -13 -21   5   19.17   17.07
  13  21  -5   14.66   20.20
  13  23   5    7.90   16.78
 -13 -23  -5   31.06   20.97
 -13 -23   5   14.11   16.90
  13  23  -5   -1.56   23.00
 -13  23  -5    8.81   19.57
 -13  23  -5    5.14   19.30
  13  25   5   35.57   18.24
 -13 -25  -5   22.46   22.32
 -13 -25   5   20.16   17.49
  13  25  -5   40.06   20.73
 -13  25  -5    1.14   21.29
 -13  25  -5   22.62   20.75
  15   1   5    7.34   15.03
 -15  -1  -5   10.91   18.01
 -15  -1   5    3.32   15.58
  15   1  -5   11.34   19.33
  15   3   5   37.86   16.35
 -15  -3  -5   11.05   19.19
 -15  -3   5    9.93   17.41
  15   3  -5   38.61   19.87
  15   5   5  452.93   97.63
 -15  -5  -5  640.61   98.75
 -15  -5   5  557.44   97.75
  15   5  -5  473.80   97.85
  15   7   5  713.97  103.97
 -15  -7  -5  481.17  103.87
 -15  -7   5  429.43  102.98
  15   7  -5  630.99  105.14
  15   9   5  105.71   26.70
 -15  -9  -5   82.41   23.26
 -15  -9   5   69.95   24.70
  15   9  -5  128.94   27.92
  15  11   5    5.61   15.10
 -15 -11  -5    1.48   12.44
 -15 -11   5   10.59   15.69
  15  11  -5   14.19   19.30
  15  13   5    8.04   15.00
 -15 -13  -5   -3.62   12.86
 -15 -13   5    6.99   18.09
  15  13  -5    0.00   18.66
  15  15   5   62.83   19.92
 -15 -15  -5   48.81   20.32
 -15 -15   5   40.55   20.06
  15  15  -5   69.81   22.86
  15  17   5   96.58   23.42
 -15 -17  -5  137.24   25.55
 -15 -17   5  120.17   25.56
  15  17  -5   99.76   27.03
 -15  17  -5   61.90   23.84
 -15  17  -5   32.05   23.58
  15  19   5   36.65   16.62
 -15 -19  -5   39.41   18.44
 -15 -19   5   42.40   18.35
  15  19  -5   44.97   21.60
 -15  19  -5   34.06   18.23
  15  21   5   27.93   15.79
 -15 -21  -5   46.51   20.02
 -15 -21   5   21.00   17.47
  15  21  -5   43.91   20.98
 -15  21  -5   11.24   22.05
 -15  21  -5   34.63   25.06
  15  23   5   71.99   21.72
 -15 -23  -5  109.83   26.28
 -15 -23   5  101.98   29.19
  15  23  -5   57.55   24.36
 -15  23  -5   28.46   25.20
 -15  23  -5   46.90   26.63
 -15 -25  -5   46.48   23.75
  15  25  -5   33.17   19.23
  17   1   5   39.40   17.18
 -17  -1  -5   16.60   16.97
 -17  -1   5   39.13   18.03
  17   1  -5   42.25   18.86
  17   3   5   13.91   16.08
 -17  -3  -5   20.22   19.11
 -17  -3   5   18.63   17.56
  17   3  -5   19.77   19.52
  17   5   5  490.03   76.60
 -17  -5  -5  285.56   76.64
 -17  -5   5  281.34   75.77
  17   5  -5  556.77   77.50
  17   7   5  764.32  145.37
 -17  -7  -5  933.07  146.19
 -17  -7   5  791.46  145.15
  17   7  -5  728.17  145.61
  17   9   5  115.13   26.06
 -17  -9  -5   72.35   22.37
 -17  -9   5   84.09   22.37
  17   9  -5   85.91   27.42
  17  11   5  111.39   26.77
 -17 -11  -5   98.86   24.14
 -17 -11   5   96.72   24.36
  17  11  -5   95.40   28.51
  17  13   5   49.16   25.39
 -17 -13  -5   55.56   23.55
 -17 -13   5   35.33   18.01
  17  13  -5   35.93   21.84
  17  15   5  359.68   59.61
 -17 -15  -5  264.40   56.67
 -17 -15   5  281.25   57.99
  17  15  -5  258.85   57.54
  17  17   5  569.89   82.23
 -17 -17  -5  372.87   80.08
 -17 -17   5  324.21   79.80
  17  17  -5  433.57   80.82
  17  19   5   88.61   23.08
 -17 -19  -5  103.18   24.95
 -17 -19   5  115.29   26.22
  17  19  -5   84.23   26.90
 -17  19  -5   44.57   24.03
  17  21   5    8.48   14.33
 -17 -21  -5    9.07   16.26
 -17 -21   5    5.47   18.76
  17  21  -5   15.94   16.59
 -17  21  -5    2.25   18.01
  17  23   5    8.50   14.36
 -17 -23  -5   -3.63   15.30
 -17 -23   5   18.09   24.54
  17  23  -5    5.09   16.66
 -17  23  -5   12.57   21.20
  19   1   5    3.02   15.65
 -19  -1  -5   25.34   16.09
 -19  -1   5   20.20   16.86
  19   1  -5    9.42   19.59
  19   3   5   19.06   16.59
 -19  -3  -5   19.31   19.63
 -19  -3   5   17.58   18.30
  19   3  -5   26.69   20.31
  19   5   5   88.06   36.53
 -19  -5  -5  279.28   40.16
 -19  -5   5  233.55   38.66
  19   5  -5   98.84   38.61
  19   7   5  262.10   41.09
 -19  -7  -5  145.33   39.44
 -19  -7   5  147.00   39.37
  19   7  -5  192.41   44.17
  19   9   5   99.65   24.74
 -19  -9  -5   73.63   27.96
 -19  -9   5   74.30   22.10
  19   9  -5  102.56   27.50
  19  11   5   28.10   20.50
 -19 -11  -5    1.56   17.51
 -19 -11   5   -0.07   13.18
  19  11  -5   -7.21   19.88
  19  13   5   51.26   25.00
 -19 -13  -5   24.68   19.38
 -19 -13   5   16.55   16.04
  19  13  -5   40.15   21.53
  19  15   5  181.78   39.65
 -19 -15  -5  179.28   35.92
 -19 -15   5  168.74   35.28
  19  15  -5  105.98   34.86
  19  17   5 1015.78  153.44
 -19 -17  -5  774.23  151.94
 -19 -17   5  814.78  151.91
  19  17  -5  758.22  151.58
  19  19   5  609.34  108.42
 -19 -19  -5  625.21  108.27
 -19 -19   5  575.32  108.21
  19  19  -5  541.28  107.81
  19  21   5   22.82   15.74
 -19 -21  -5   26.09   18.44
 -19 -21   5   25.30   19.97
  19  21  -5   29.57   18.24
 -19  21  -5   18.73   18.44
  21   1   5   16.66   19.18
 -21  -1  -5   14.34   16.41
 -21  -1   5   27.52   17.36
  21   1  -5   17.65   19.99
  21   3   5   18.45   19.78
 -21  -3  -5   33.15   17.04
 -21  -3   5   16.12   18.34
  21   3  -5   10.06   20.40
  21   5   5   84.01   24.32
 -21  -5  -5   61.54   21.89
 -21  -5   5   42.65   22.21
  21   5  -5   76.28   25.08
  21   7   5   49.10   20.30
 -21  -7  -5   36.55   19.49
 -21  -7   5   35.60   19.28
  21   7  -5   32.23   17.17
  21   9   5   29.48   17.36
 -21  -9  -5    3.82   18.43
 -21  -9   5    7.92   13.98
  21   9  -5   20.94   15.62
  21  11   5   97.79   24.20
 -21 -11  -5   67.33   24.61
 -21 -11   5   71.45   22.04
  21  11  -5   82.64   22.78
  21  13   5   77.68   23.40
 -21 -13  -5   23.49   19.60
 -21 -13   5   15.97   16.31
  21  13  -5   19.30   18.04
  21  15   5  776.11  103.22
 -21 -15  -5  499.01  100.78
 -21 -15   5  462.96  101.16
  21  15  -5  455.51  100.53
  21  17   5 1222.83  175.75
 -21 -17  -5  949.46  174.32
 -21 -17   5  840.12  173.87
  21  17  -5  864.50  173.81
  23   1   5    6.95   20.23
 -23  -1  -5   15.46   16.73
 -23  -1   5   27.60   17.76
  23   1  -5    6.34   20.50
  23   3   5   51.97   23.07
 -23  -3  -5   58.82   23.69
 -23  -3   5   92.94   25.98
  23   3  -5   28.73   23.91
  23   5   5   55.39   25.61
 -23  -5  -5    6.73   18.04
 -23  -5   5   10.66   19.15
  23   5  -5   59.73   22.73
  23   7   5    9.19   20.20
 -23  -7  -5   59.60   20.20
 -23  -7   5   59.75   19.81
  23   7  -5   17.89   17.06
  23   9   5   10.36   17.69
 -23  -9  -5    2.29   17.41
 -23  -9   5   -4.93   13.83
  23   9  -5   10.83   15.27
  23  11   5   14.99   17.85
 -23 -11  -5   18.34   19.81
 -23 -11   5   24.05   15.22
  23  11  -5   11.92   16.04
  23  13   5   38.03   19.50
 -23 -13  -5   18.03   20.11
 -23 -13   5   31.23   16.51
  23  13  -5   30.85   18.46
  23  15   5  365.86   65.89
 -23 -15  -5  363.73   63.43
 -23 -15   5  297.34   62.69
  23  15  -5  267.18   62.62
  25   1   5   16.91   21.06
 -25  -1  -5   20.43   18.12
 -25  -1   5   14.93   18.51
  25   1  -5   28.52   21.30
  25   3   5  145.65   31.29
 -25  -3  -5  105.73   28.93
 -25  -3   5  114.71   30.61
  25   3  -5  100.70   31.68
  25   5   5  293.13   64.47
 -25  -5  -5  403.52   64.05
 -25  -5   5  303.19   63.91
  25   5  -5  313.05   65.18
  25   7   5  285.12   42.75
 -25  -7  -5  127.49   40.34
 -25  -7   5  109.96   37.95
  25   7  -5  236.11   40.44
  25   9   5   28.32   19.19
 -25  -9  -5   30.52   19.76
 -25  -9   5   23.37   15.71
  25   9  -5   22.63   17.27
   0   0   0    0.00    0.00
;
_shelx_hkl_checksum   17146

