 
data_FAPbI_DMF1
 
_audit_creation_method            SHELXL-2013
_chemical_name_systematic
;
 ?
;
_chemical_name_common             ?
_chemical_melting_point           ?
_chemical_formula_moiety          
 'I3 Pb, 2(C3 H7 N O), C H5 N2'
_chemical_formula_sum
 'C7 H19 I3 N4 O2 Pb' 
_chemical_formula_weight          779.16

loop_
 _atom_type_symbol
 _atom_type_description
 _atom_type_scat_dispersion_real
 _atom_type_scat_dispersion_imag
 _atom_type_scat_source
 'C'  'C'   0.0050   0.0020
 'International Tables Vol C Tables 4.2.6.8 and 6.1.1.4'
 'H'  'H'   0.0000   0.0000
 'International Tables Vol C Tables 4.2.6.8 and 6.1.1.4'
 'N'  'N'   0.0090   0.0040
 'International Tables Vol C Tables 4.2.6.8 and 6.1.1.4'
 'O'  'O'   0.0150   0.0080
 'International Tables Vol C Tables 4.2.6.8 and 6.1.1.4'
 'I'  'I'  -0.2582   2.2555
 'International Tables Vol C Tables 4.2.6.8 and 6.1.1.4'
 'Pb'  'Pb'  -7.4040  10.6371
 'International Tables Vol C Tables 4.2.6.8 and 6.1.1.4'
 
_space_group_crystal_system       triclinic
_space_group_IT_number            2
_space_group_name_H-M_alt         'P -1'
_space_group_name_Hall            '-P 1'
 
_shelx_space_group_comment
;
The symmetry employed for this shelxl refinement is uniquely defined
by the following loop, which should always be used as a source of
symmetry information in preference to the above space-group names.
They are only intended as comments.
;
 
loop_
 _space_group_symop_operation_xyz
 'x, y, z'
 '-x, -y, -z'
 
_cell_length_a                    7.8788(16)
_cell_length_b                    10.497(2)
_cell_length_c                    12.678(3)
_cell_angle_alpha                 75.92(3)
_cell_angle_beta                  75.11(3)
_cell_angle_gamma                 68.82(3)
_cell_volume                      931.6(4)
_cell_formula_units_Z             2
_cell_measurement_temperature     100(2)
_cell_measurement_reflns_used     500
_cell_measurement_theta_min       3.2
_cell_measurement_theta_max       30.2
 
_exptl_crystal_description        needle
_exptl_crystal_colour             black
_exptl_crystal_density_meas       ? 
_exptl_crystal_density_method     ?              
_exptl_crystal_density_diffrn     2.778          
_exptl_crystal_F_000              692
_exptl_transmission_factor_min    ?                                             
_exptl_transmission_factor_max    ?                                             
_exptl_crystal_size_max           0.150
_exptl_crystal_size_mid           0.030
_exptl_crystal_size_min           0.030
_exptl_absorpt_coefficient_mu     17.453
_shelx_estimated_absorpt_T_min    0.178
_shelx_estimated_absorpt_T_max    0.621
_exptl_absorpt_correction_type    'multi-scan'          
_exptl_absorpt_correction_T_min   0.140                 
_exptl_absorpt_correction_T_max   0.560                 
_exptl_absorpt_process_details    'Scala (Evans, 2006)' 
 
_exptl_special_details
;
 ?
;
 
_diffrn_ambient_temperature       100(2)
_diffrn_radiation_wavelength      0.80246
_diffrn_radiation_type            synchrotron        
_diffrn_source                    ?                                         
_diffrn_measurement_device_type   'Rayonix SX165 CCD' 
_diffrn_measurement_method        '/f scan'           
_diffrn_detector_area_resol_mean  ? 
_diffrn_reflns_number             15000
_diffrn_reflns_av_unetI/netI      0.1101
_diffrn_reflns_av_R_equivalents   0.0962
_diffrn_reflns_limit_h_min        -10
_diffrn_reflns_limit_h_max        10
_diffrn_reflns_limit_k_min        -13
_diffrn_reflns_limit_k_max        13
_diffrn_reflns_limit_l_min        -16
_diffrn_reflns_limit_l_max        16
_diffrn_reflns_theta_min          3.187
_diffrn_reflns_theta_max          30.865
_diffrn_reflns_theta_full         28.782
_diffrn_measured_fraction_theta_max   0.988
_diffrn_measured_fraction_theta_full  0.995
_diffrn_reflns_Laue_measured_fraction_max    0.988
_diffrn_reflns_Laue_measured_fraction_full   0.995
_diffrn_reflns_point_group_measured_fraction_max   0.988
_diffrn_reflns_point_group_measured_fraction_full  0.995
_reflns_number_total              4035
_reflns_number_gt                 3570
_reflns_threshold_expression      'I > 2\s(I)'
_reflns_Friedel_coverage          0.000
_reflns_Friedel_fraction_max      .
_reflns_Friedel_fraction_full     .
 
_reflns_special_details
;
 Reflections were merged by SHELXL according to the crystal
 class for the calculation of statistics and refinement.
 
 _reflns_Friedel_fraction is defined as the number of unique
 Friedel pairs measured divided by the number that would be
 possible theoretically, ignoring centric projections and
 systematic absences.
;
 
_computing_data_collection        'Marccd (Doyle, 2011)'         
_computing_cell_refinement        'iMosflm (Battye et al., 2011)'
_computing_data_reduction         'iMosflm'                      
_computing_structure_solution     'SHELXT (Sheldrick, 2015)'     
_computing_structure_refinement   'SHELXL (Sheldrick, 2015)'     
_computing_molecular_graphics     'SHELXTL (Sheldrick, 2015)'    
_computing_publication_material   'SHELXTL'                      
 
_refine_special_details
;
 ?
;
_refine_ls_structure_factor_coef  Fsqd
_refine_ls_matrix_type            full
_refine_ls_weighting_scheme       calc
_refine_ls_weighting_details
'w=1/[\s^2^(Fo^2^)+(0.0559P)^2^+5P] where P=(Fo^2^+2Fc^2^)/3'
_atom_sites_solution_primary      difmap
_atom_sites_solution_secondary    difmap
_atom_sites_solution_hydrogens    geom
_refine_ls_hydrogen_treatment     constr
_refine_ls_extinction_method      SHELXL
_refine_ls_extinction_coef        0.0052(5)
_refine_ls_extinction_expression
 'Fc^*^=kFc[1+0.001xFc^2^\l^3^/sin(2\q)]^-1/4^'
_refine_ls_number_reflns          4035
_refine_ls_number_parameters      162
_refine_ls_number_restraints      0
_refine_ls_R_factor_all           0.0592
_refine_ls_R_factor_gt            0.0537
_refine_ls_wR_factor_ref          0.1303
_refine_ls_wR_factor_gt           0.1263
_refine_ls_goodness_of_fit_ref    0.951
_refine_ls_restrained_S_all       0.951
_refine_ls_shift/su_max           0.000
_refine_ls_shift/su_mean          0.000
 
loop_
 _atom_site_label
 _atom_site_type_symbol
 _atom_site_fract_x
 _atom_site_fract_y
 _atom_site_fract_z
 _atom_site_U_iso_or_equiv
 _atom_site_adp_type
 _atom_site_occupancy
 _atom_site_site_symmetry_order  
 _atom_site_calc_flag
 _atom_site_refinement_flags_posn
 _atom_site_refinement_flags_adp
 _atom_site_refinement_flags_occupancy
 _atom_site_disorder_assembly
 _atom_site_disorder_group
Pb1 Pb 0.5000 0.5000 0.5000 0.02288(17) Uani 1 2 d S . P . .
Pb2 Pb 1.0000 0.5000 0.5000 0.02277(17) Uani 1 2 d S . P . .
I1 I 0.64313(7) 0.54793(6) 0.69924(5) 0.02662(18) Uani 1 1 d . . . . .
I2 I 0.87767(7) 0.24105(6) 0.49280(5) 0.02496(18) Uani 1 1 d . . . . .
I3 I 0.73184(7) 0.68568(6) 0.33152(5) 0.02561(18) Uani 1 1 d . . . . .
N1 N 0.4126(15) 0.8022(13) 0.1397(10) 0.062(3) Uani 1 1 d . . . . .
H1A H 0.4297 0.7484 0.2037 0.075 Uiso 1 1 calc R U . . .
H1B H 0.5083 0.8049 0.0859 0.075 Uiso 1 1 calc R U . . .
N2 N 0.1007(12) 0.8740(11) 0.2056(9) 0.047(2) Uani 1 1 d . . . . .
H2A H 0.1094 0.8223 0.2712 0.056 Uiso 1 1 calc R U . . .
H2B H -0.0085 0.9273 0.1905 0.056 Uiso 1 1 calc R U . . .
C1 C 0.260(2) 0.8716(14) 0.1256(13) 0.062(4) Uani 1 1 d . . . . .
H1 H 0.2456 0.9286 0.0556 0.075 Uiso 1 1 calc R U . . .
O1 O 0.7341(9) 0.8006(9) -0.0219(6) 0.0436(19) Uani 1 1 d . . . . .
N3 N 1.0363(10) 0.6685(8) -0.0533(7) 0.0301(17) Uani 1 1 d . . . . .
C2 C 0.8857(14) 0.7418(12) 0.0075(9) 0.040(2) Uani 1 1 d . . . . .
H2 H 0.8947 0.7498 0.0788 0.048 Uiso 1 1 calc R U . . .
C3 C 1.0378(16) 0.6543(13) -0.1636(9) 0.047(3) Uani 1 1 d . . . . .
H3A H 1.0910 0.7208 -0.2174 0.070 Uiso 1 1 calc R U . . .
H3B H 0.9108 0.6725 -0.1725 0.070 Uiso 1 1 calc R U . . .
H3C H 1.1128 0.5600 -0.1761 0.070 Uiso 1 1 calc R U . . .
C4 C 1.2115(14) 0.6070(12) -0.0133(9) 0.043(3) Uani 1 1 d . . . . .
H4A H 1.2518 0.5061 -0.0081 0.064 Uiso 1 1 calc R U . . .
H4B H 1.1944 0.6300 0.0600 0.064 Uiso 1 1 calc R U . . .
H4C H 1.3057 0.6435 -0.0649 0.064 Uiso 1 1 calc R U . . .
O2 O -0.2190(9) 1.0455(8) 0.1251(6) 0.0390(17) Uani 1 1 d . . . . .
N4 N -0.4517(10) 1.0656(8) 0.2773(7) 0.0289(17) Uani 1 1 d . . . . .
C5 C -0.3826(14) 1.0571(10) 0.1722(9) 0.036(2) Uani 1 1 d . . . . .
H5 H -0.4651 1.0602 0.1279 0.043 Uiso 1 1 calc R U . . .
C6 C -0.3371(14) 1.0630(11) 0.3529(9) 0.037(2) Uani 1 1 d . . . . .
H6A H -0.2811 0.9671 0.3870 0.056 Uiso 1 1 calc R U . . .
H6B H -0.4145 1.1177 0.4107 0.056 Uiso 1 1 calc R U . . .
H6C H -0.2392 1.1025 0.3115 0.056 Uiso 1 1 calc R U . . .
C7 C -0.6391(13) 1.0677(12) 0.3262(9) 0.039(2) Uani 1 1 d . . . . .
H7A H -0.7078 1.0824 0.2675 0.058 Uiso 1 1 calc R U . . .
H7B H -0.6994 1.1430 0.3696 0.058 Uiso 1 1 calc R U . . .
H7C H -0.6376 0.9790 0.3745 0.058 Uiso 1 1 calc R U . . .
 
loop_
 _atom_site_aniso_label
 _atom_site_aniso_U_11
 _atom_site_aniso_U_22
 _atom_site_aniso_U_33
 _atom_site_aniso_U_23
 _atom_site_aniso_U_13
 _atom_site_aniso_U_12
Pb1 0.0171(2) 0.0224(3) 0.0280(3) -0.00207(19) -0.00750(17) -0.00412(18)
Pb2 0.0173(2) 0.0217(3) 0.0289(3) -0.00340(19) -0.00804(18) -0.00376(18)
I1 0.0233(3) 0.0266(3) 0.0288(3) -0.0074(2) -0.0064(2) -0.0038(2)
I2 0.0207(3) 0.0207(3) 0.0331(3) -0.0064(2) -0.0081(2) -0.0027(2)
I3 0.0216(3) 0.0235(3) 0.0300(3) 0.0014(2) -0.0097(2) -0.0056(2)
N1 0.050(6) 0.066(8) 0.062(7) -0.003(6) -0.002(5) -0.019(6)
N2 0.026(4) 0.047(6) 0.064(6) 0.006(5) -0.007(4) -0.019(4)
C1 0.088(10) 0.042(7) 0.076(9) 0.003(6) -0.055(8) -0.023(7)
O1 0.029(3) 0.052(5) 0.040(4) -0.005(3) -0.007(3) -0.003(3)
N3 0.027(3) 0.029(4) 0.033(4) -0.004(3) -0.007(3) -0.007(3)
C2 0.037(5) 0.041(6) 0.037(5) -0.006(5) -0.008(4) -0.005(4)
C3 0.046(6) 0.051(7) 0.035(5) -0.006(5) -0.006(4) -0.008(5)
C4 0.035(5) 0.045(6) 0.039(5) -0.007(5) -0.017(4) 0.005(4)
O2 0.035(3) 0.042(4) 0.033(4) 0.003(3) -0.003(3) -0.013(3)
N4 0.026(3) 0.022(4) 0.038(4) -0.006(3) -0.011(3) -0.002(3)
C5 0.044(5) 0.028(5) 0.040(5) -0.001(4) -0.025(4) -0.007(4)
C6 0.036(5) 0.041(6) 0.037(5) -0.013(4) -0.015(4) -0.005(4)
C7 0.031(5) 0.038(6) 0.048(6) -0.011(5) 0.001(4) -0.016(4)
 
_geom_special_details
;
 All esds (except the esd in the dihedral angle between two l.s. planes)
 are estimated using the full covariance matrix.  The cell esds are taken
 into account individually in the estimation of esds in distances, angles
 and torsion angles; correlations between esds in cell parameters are only
 used when they are defined by crystal symmetry.  An approximate (isotropic)
 treatment of cell esds is used for estimating esds involving l.s. planes.
;
 
loop_
 _geom_bond_atom_site_label_1
 _geom_bond_atom_site_label_2
 _geom_bond_distance
 _geom_bond_site_symmetry_2
 _geom_bond_publ_flag
Pb1 I3 3.2001(13) 2_666 ?
Pb1 I3 3.2002(13) . ?
Pb1 I2 3.2228(14) 2_666 ?
Pb1 I2 3.2228(14) . ?
Pb1 I1 3.2246(9) . ?
Pb1 I1 3.2246(9) 2_666 ?
Pb2 I3 3.1848(13) 2_766 ?
Pb2 I3 3.1849(13) . ?
Pb2 I2 3.2226(9) 2_766 ?
Pb2 I2 3.2226(9) . ?
Pb2 I1 3.2380(13) 2_766 ?
Pb2 I1 3.2380(14) . ?
N1 C1 1.196(16) . ?
N1 H1A 0.8800 . ?
N1 H1B 0.8800 . ?
N2 C1 1.390(19) . ?
N2 H2A 0.8800 . ?
N2 H2B 0.8800 . ?
C1 H1 0.9500 . ?
O1 C2 1.237(12) . ?
N3 C2 1.324(12) . ?
N3 C3 1.438(13) . ?
N3 C4 1.462(11) . ?
C2 H2 0.9500 . ?
C3 H3A 0.9800 . ?
C3 H3B 0.9800 . ?
C3 H3C 0.9800 . ?
C4 H4A 0.9800 . ?
C4 H4B 0.9800 . ?
C4 H4C 0.9800 . ?
O2 C5 1.249(13) . ?
N4 C5 1.316(13) . ?
N4 C7 1.441(12) . ?
N4 C6 1.465(11) . ?
C5 H5 0.9500 . ?
C6 H6A 0.9800 . ?
C6 H6B 0.9800 . ?
C6 H6C 0.9800 . ?
C7 H7A 0.9800 . ?
C7 H7B 0.9800 . ?
C7 H7C 0.9800 . ?
 
loop_
 _geom_angle_atom_site_label_1
 _geom_angle_atom_site_label_2
 _geom_angle_atom_site_label_3
 _geom_angle
 _geom_angle_site_symmetry_1
 _geom_angle_site_symmetry_3
 _geom_angle_publ_flag
I3 Pb1 I3 180.0 2_666 . ?
I3 Pb1 I2 88.18(3) 2_666 2_666 ?
I3 Pb1 I2 91.82(3) . 2_666 ?
I3 Pb1 I2 91.82(3) 2_666 . ?
I3 Pb1 I2 88.18(3) . . ?
I2 Pb1 I2 180.0 2_666 . ?
I3 Pb1 I1 91.52(2) 2_666 . ?
I3 Pb1 I1 88.48(3) . . ?
I2 Pb1 I1 97.82(3) 2_666 . ?
I2 Pb1 I1 82.18(3) . . ?
I3 Pb1 I1 88.48(2) 2_666 2_666 ?
I3 Pb1 I1 91.52(3) . 2_666 ?
I2 Pb1 I1 82.18(3) 2_666 2_666 ?
I2 Pb1 I1 97.82(3) . 2_666 ?
I1 Pb1 I1 180.0 . 2_666 ?
I3 Pb2 I3 180.0 2_766 . ?
I3 Pb2 I2 88.45(3) 2_766 2_766 ?
I3 Pb2 I2 91.55(3) . 2_766 ?
I3 Pb2 I2 91.55(3) 2_766 . ?
I3 Pb2 I2 88.45(3) . . ?
I2 Pb2 I2 180.0 2_766 . ?
I3 Pb2 I1 88.51(3) 2_766 2_766 ?
I3 Pb2 I1 91.49(3) . 2_766 ?
I2 Pb2 I1 81.97(3) 2_766 2_766 ?
I2 Pb2 I1 98.03(3) . 2_766 ?
I3 Pb2 I1 91.49(3) 2_766 . ?
I3 Pb2 I1 88.51(3) . . ?
I2 Pb2 I1 98.03(3) 2_766 . ?
I2 Pb2 I1 81.97(3) . . ?
I1 Pb2 I1 180.0 2_766 . ?
Pb1 I1 Pb2 75.12(2) . . ?
Pb2 I2 Pb1 75.35(2) . . ?
Pb2 I3 Pb1 76.19(3) . . ?
C1 N1 H1A 120.0 . . ?
C1 N1 H1B 120.0 . . ?
H1A N1 H1B 120.0 . . ?
C1 N2 H2A 120.0 . . ?
C1 N2 H2B 120.0 . . ?
H2A N2 H2B 120.0 . . ?
N1 C1 N2 124.0(13) . . ?
N1 C1 H1 118.0 . . ?
N2 C1 H1 118.0 . . ?
C2 N3 C3 121.7(8) . . ?
C2 N3 C4 120.8(8) . . ?
C3 N3 C4 117.4(8) . . ?
O1 C2 N3 124.6(10) . . ?
O1 C2 H2 117.7 . . ?
N3 C2 H2 117.7 . . ?
N3 C3 H3A 109.5 . . ?
N3 C3 H3B 109.5 . . ?
H3A C3 H3B 109.5 . . ?
N3 C3 H3C 109.5 . . ?
H3A C3 H3C 109.5 . . ?
H3B C3 H3C 109.5 . . ?
N3 C4 H4A 109.5 . . ?
N3 C4 H4B 109.5 . . ?
H4A C4 H4B 109.5 . . ?
N3 C4 H4C 109.5 . . ?
H4A C4 H4C 109.5 . . ?
H4B C4 H4C 109.5 . . ?
C5 N4 C7 122.1(8) . . ?
C5 N4 C6 121.4(8) . . ?
C7 N4 C6 116.4(8) . . ?
O2 C5 N4 126.2(9) . . ?
O2 C5 H5 116.9 . . ?
N4 C5 H5 116.9 . . ?
N4 C6 H6A 109.5 . . ?
N4 C6 H6B 109.5 . . ?
H6A C6 H6B 109.5 . . ?
N4 C6 H6C 109.5 . . ?
H6A C6 H6C 109.5 . . ?
H6B C6 H6C 109.5 . . ?
N4 C7 H7A 109.5 . . ?
N4 C7 H7B 109.5 . . ?
H7A C7 H7B 109.5 . . ?
N4 C7 H7C 109.5 . . ?
H7A C7 H7C 109.5 . . ?
H7B C7 H7C 109.5 . . ?
 
loop_
 _geom_torsion_atom_site_label_1
 _geom_torsion_atom_site_label_2
 _geom_torsion_atom_site_label_3
 _geom_torsion_atom_site_label_4
 _geom_torsion
 _geom_torsion_site_symmetry_1
 _geom_torsion_site_symmetry_2
 _geom_torsion_site_symmetry_3
 _geom_torsion_site_symmetry_4
 _geom_torsion_publ_flag
C3 N3 C2 O1 2.0(18) . . . . ?
C4 N3 C2 O1 177.7(11) . . . . ?
C7 N4 C5 O2 -174.9(10) . . . . ?
C6 N4 C5 O2 0.5(16) . . . . ?
 
loop_
 _geom_hbond_atom_site_label_D 
 _geom_hbond_atom_site_label_H 
 _geom_hbond_atom_site_label_A 
 _geom_hbond_distance_DH 
 _geom_hbond_distance_HA 
 _geom_hbond_distance_DA 
 _geom_hbond_angle_DHA 
 _geom_hbond_site_symmetry_A 
N1 H1A I1  0.88 3.25 3.863(13) 128.6 2_666
N1 H1A I3  0.88 3.01 3.635(12) 129.6 .
N1 H1B O1  0.88 1.94 2.816(14) 174.4 .
N2 H2A I2  0.88 2.92 3.749(11) 156.9 2_666
N2 H2B O2  0.88 1.92 2.789(11) 167.6 .
C1 H1  O2  0.95 2.30 3.152(16) 149.7 2_575
 
_refine_diff_density_max    2.934
_refine_diff_density_min   -3.490
_refine_diff_density_rms    0.370

_shelxl_version_number 2013-4

_shelx_res_file
;
TITL FAPbI_DMF1 in P-1
CELL 0.80246   7.8788  10.4971  12.6783  75.923  75.110  68.815
ZERR    2.00   0.0016   0.0021   0.0025   0.030   0.030   0.030
LATT 1
SFAC C H N O I Pb
DISP C 0.005 0.002 15.071
DISP H -0 0 0.629
DISP N 0.009 0.004 26.694
DISP O 0.015 0.008 45.138
DISP I -0.2582 2.2555 10748.787
DISP Pb -7.4040 10.6371 49287.003
UNIT 14 38 8 4 6 2
TEMP -173.0
SIZE 0.15 0.03 0.03

OMIT    -3  -5   9
OMIT    -4  -8   9
OMIT    -7  -7   6
OMIT    -5  -7   9
OMIT    -3  -1  10
OMIT    -6  -5   9
OMIT    -3  -6   8
OMIT    -5  -2  11
OMIT    -6  -6   8
OMIT    -6  -7   7
OMIT     0  -1   2
OMIT     9  -1   1
OMIT     3   4   7
OMIT    -6  -4   9
OMIT    -6   7   0
OMIT     6  -7   1
OMIT    -7  -6   7
OMIT     9   9   6
OMIT     2  -9   7
OMIT     9  -1   2
OMIT    -4  -1  11
OMIT     1   2   6
OMIT    -6  -2  10
OMIT    -8  -2   6
OMIT     6   4  15
OMIT    -2  -3   8
OMIT    -7  -3   8
OMIT    -5  -5  10
OMIT    -5  -3  11
OMIT     7   5  14
OMIT    -6  -6   7
OMIT    -6   7   1
OMIT    -9  -3   2
L.S. 12
BOND $H
ACTA
CONF
EQIV $1 -x+1, -y+1, -z+1
HTAB N1 I1_$1
HTAB N1 I3
HTAB N1 O1
HTAB N2 I2_$1
HTAB N2 O2
EQIV $2 -x, -y+2, -z
HTAB C1 O2_$2

WGHT    0.055900    5.000000
EXTI    0.005200
FVAR       1.02709
PB1   6    0.500000    0.500000    0.500000    10.50000    0.01711    0.02241 =
         0.02800   -0.00207   -0.00750   -0.00412
PB2   6    1.000000    0.500000    0.500000    10.50000    0.01734    0.02170 =
         0.02890   -0.00340   -0.00804   -0.00376
I1    5    0.643135    0.547931    0.699236    11.00000    0.02332    0.02661 =
         0.02879   -0.00740   -0.00644   -0.00376
I2    5    0.877666    0.241053    0.492800    11.00000    0.02067    0.02066 =
         0.03306   -0.00640   -0.00806   -0.00269
I3    5    0.731843    0.685678    0.331517    11.00000    0.02157    0.02351 =
         0.02999    0.00140   -0.00966   -0.00561
N1    3    0.412649    0.802180    0.139657    11.00000    0.04998    0.06564 =
         0.06217   -0.00306   -0.00206   -0.01875
AFIX  93
H1A   2    0.429724    0.748362    0.203689    11.00000   -1.20000
H1B   2    0.508253    0.804882    0.085940    11.00000   -1.20000
AFIX   0
N2    3    0.100713    0.874027    0.205554    11.00000    0.02640    0.04738 =
         0.06387    0.00614   -0.00738   -0.01879
AFIX  93
H2A   2    0.109388    0.822282    0.271173    11.00000   -1.20000
H2B   2   -0.008541    0.927287    0.190538    11.00000   -1.20000
AFIX   0
C1    1    0.259549    0.871633    0.125641    11.00000    0.08753    0.04195 =
         0.07551    0.00323   -0.05513   -0.02295
AFIX  43
H1    2    0.245642    0.928647    0.055616    11.00000   -1.20000
AFIX   0
O1    4    0.734094    0.800581   -0.021938    11.00000    0.02901    0.05158 =
         0.04036   -0.00468   -0.00653   -0.00333
N3    3    1.036296    0.668543   -0.053326    11.00000    0.02700    0.02879 =
         0.03263   -0.00386   -0.00682   -0.00668
C2    1    0.885719    0.741794    0.007491    11.00000    0.03652    0.04121 =
         0.03650   -0.00564   -0.00816   -0.00511
AFIX  43
H2    2    0.894685    0.749801    0.078758    11.00000   -1.20000
AFIX   0
C3    1    1.037847    0.654316   -0.163597    11.00000    0.04631    0.05068 =
         0.03512   -0.00631   -0.00601   -0.00756
AFIX 137
H3A   2    1.090984    0.720802   -0.217392    11.00000   -1.50000
H3B   2    0.910798    0.672502   -0.172469    11.00000   -1.50000
H3C   2    1.112816    0.559951   -0.176068    11.00000   -1.50000
AFIX   0
C4    1    1.211469    0.606958   -0.013278    11.00000    0.03491    0.04508 =
         0.03876   -0.00658   -0.01746    0.00458
AFIX 137
H4A   2    1.251758    0.506075   -0.008083    11.00000   -1.50000
H4B   2    1.194422    0.629983    0.059966    11.00000   -1.50000
H4C   2    1.305685    0.643523   -0.064866    11.00000   -1.50000
AFIX   0
O2    4   -0.219008    1.045455    0.125067    11.00000    0.03517    0.04229 =
         0.03261    0.00318   -0.00289   -0.01260
N4    3   -0.451679    1.065568    0.277347    11.00000    0.02581    0.02210 =
         0.03788   -0.00578   -0.01143   -0.00236
C5    1   -0.382629    1.057137    0.172206    11.00000    0.04364    0.02755 =
         0.04012   -0.00088   -0.02505   -0.00673
AFIX  43
H5    2   -0.465123    1.060230    0.127903    11.00000   -1.20000
AFIX   0
C6    1   -0.337115    1.063003    0.352871    11.00000    0.03610    0.04088 =
         0.03690   -0.01317   -0.01492   -0.00523
AFIX 137
H6A   2   -0.281072    0.967102    0.386969    11.00000   -1.50000
H6B   2   -0.414458    1.117659    0.410701    11.00000   -1.50000
H6C   2   -0.239182    1.102531    0.311461    11.00000   -1.50000
AFIX   0
C7    1   -0.639122    1.067661    0.326152    11.00000    0.03107    0.03849 =
         0.04790   -0.01146    0.00077   -0.01606
AFIX 137
H7A   2   -0.707793    1.082389    0.267480    11.00000   -1.50000
H7B   2   -0.699367    1.142992    0.369610    11.00000   -1.50000
H7C   2   -0.637640    0.979026    0.374548    11.00000   -1.50000

AFIX   0
HKLF 4

REM  FAPbI_DMF1 in P-1
REM R1 =  0.0537 for    3570 Fo > 4sig(Fo)  and  0.0592 for all    4035 data
REM    162 parameters refined using      0 restraints

END

WGHT      0.0559      0.0000

REM Highest difference peak  2.934,  deepest hole -3.490,  1-sigma level  0.370
Q1    1   1.0482  0.4792  0.4336  11.00000  0.05    2.93
Q2    1   0.4390  0.5186  0.5733  11.00000  0.05    2.52
Q3    1   0.6849  0.7043  0.3943  11.00000  0.05    2.28
Q4    1   0.8502  0.6032  0.4151  11.00000  0.05    2.24
Q5    1   0.2872  0.8330  0.1883  11.00000  0.05    2.17
Q6    1   1.0373  0.4175  0.5790  11.00000  0.05    2.11
Q7    1   0.7910  0.6668  0.2584  11.00000  0.05    1.96
Q8    1   0.5121  0.4030  0.5653  11.00000  0.05    1.94
Q9    1   0.8260  0.2608  0.5657  11.00000  0.05    1.92
Q10   1   0.3690  0.8634  0.0744  11.00000  0.05    1.90
Q11   1   0.3622  0.4541  0.5220  11.00000  0.05    1.84
Q12   1   0.6835  0.5368  0.6389  11.00000  0.05    1.74
Q13   1   0.6220  0.6182  0.3428  11.00000  0.05    1.66
Q14   1   1.0662  0.4908  0.5794  11.00000  0.05    1.60
Q15   1   1.1089  0.5647  0.4884  11.00000  0.05    1.57
Q16   1  -0.6145  1.2428  0.4986  11.00000  0.05    1.56
Q17   1   0.4094  0.5596  0.4181  11.00000  0.05    1.56
Q18   1   1.1496  0.5403 -0.3068  11.00000  0.05    1.54
Q19   1   1.0591  0.3826  0.4867  11.00000  0.05    1.53
Q20   1   0.9835  0.2485  0.4017  11.00000  0.05    1.50
;
_shelx_res_checksum   89903

_shelx_hkl_file
;
  -9  -7   1 1609.08  265.11   1
  -9  -7   1 1334.50  256.96   1
   9   7  -1 3184.91  616.80   1
   9   7  -1 3524.96  611.87   1
  -9  -6   1  219.33   91.26   1
   9   6  -1  230.10  302.06   1
   9   6  -1    2.04  511.36   1
  -9  -6   2  -26.78   68.49   1
   9   6  -2   77.58  289.74   1
   9   6  -2  245.61  507.11   1
  -9  -5   1  232.67   92.17   1
  -9  -5   1  192.20   91.06   1
   9   5  -1  392.35  392.48   1
   9   5  -1  182.36  489.45   1
   9   5  -1  224.92  112.49   1
  -9  -5   2  171.22   85.44   1
   9   5  -2  339.89  391.20   1
   9   5  -2  215.21  512.54   1
   9   5  -2   76.02  108.18   1
  -9  -4   1  137.59   80.26   1
  -9  -4   1   97.69   80.79   1
   9   4  -1  151.60  433.73   1
   9   4  -1   90.42   81.72   1
  -9  -4   2   89.44   75.49   1
  -9  -4   2   41.09   69.34   1
   9   4  -2   55.31  487.72   1
   9   4  -2   74.17   98.97   1
  -9  -4   3   56.70   78.68   1
  -9  -4   3   48.57   70.95   1
   9   4  -3  217.05  360.20   1
   9   4  -3 -128.66  655.45   1
   9   4  -3  134.03  102.42   1
  -9  -3   1   44.19   89.00   1
   9   3  -1    7.22  505.52   1
   9   3  -1    4.75  108.29   1
  -9  -3   2  565.68  113.40   1
  -9  -3   2  561.54  117.76   1
   9   3  -2  485.59  552.99   1
   9   3  -2  635.53  140.29   1
  -9  -3   3   43.91   74.65   1
  -9  -3   3   77.17   92.48   1
   9   3  -3   55.39  104.63   1
  -9  -2   1  141.80   64.05   1
  -9  -2   1  195.92   89.52   1
   9   2  -1  712.83  642.12   1
   9   2  -1   52.29   85.15   1
  -9  -2   2 1436.48  261.62   1
  -9  -2   2 1973.57  267.77   1
   9   2  -2  902.14  698.93   1
   9   2  -2 1680.03  275.01   1
   9   2  -3 1069.97  856.13   1
  -9  -1   1   52.50   56.45   1
  -9  -1   1   54.22   83.61   1
   9   1  -1 -129.89  626.76   1
   9   1  -1   54.55   80.26   1
  -9  -1   2  104.60   60.16   1
  -9  -1   2   40.16   86.43   1
   9   1  -2  218.21  663.76   1
   9   1  -2   84.06   84.94   1
  -9   0   1  -15.54   53.84   1
  -9   0   1   48.29   67.62   1
   9   0  -1 -276.38  642.26   1
   9   0  -1   27.65   79.65   1
   8   9  -1  249.97  317.66   1
   8   9  -1  290.31  398.35   1
   8   9  -2 2244.14  540.81   1
   8   9  -2  859.58  544.78   1
   8   8  -1  672.11  334.74   1
   8   8  -1 1347.31  418.62   1
   8   8  -2 3228.04  764.78   1
   8   8  -2 3162.59  817.76   1
   8   8  -3 5626.85 1435.97   1
   8   8  -3 6891.09 1467.20   1
  -8  -7   1  756.82  138.18   1
  -8  -7   1  727.97  136.12   1
   8   7  -1 1408.01  347.53   1
   8   7  -1  608.90  467.82   1
  -8  -7   2  824.71  165.44   1
   8   7  -2 1315.03  312.07   1
   8   7  -2 1949.77  456.54   1
   8   7  -3 1181.11  371.85   1
   8   7  -3 1031.70  575.61   1
   8   7  -4  957.16  435.04   1
   8   7  -4  723.51  554.98   1
  -8  -6   1 2049.02  311.87   1
   8   6  -1 1801.96  550.33   1
   8   6  -1 2213.71  647.59   1
  -8  -6   2  847.89  141.65   1
  -8  -6   2  716.10  133.30   1
   8   6  -2  869.94  360.35   1
   8   6  -2 1161.48  421.55   1
   8   6  -2  587.90  150.30   1
  -8  -6   3   17.62   60.47   1
   8   6  -3  191.79  314.21   1
   8   6  -3   55.49  501.38   1
   8   6  -3   84.56   83.35   1
  -8  -6   4  191.84   78.59   1
  -8  -6   4   85.64   78.05   1
   8   6  -4   24.62  216.49   1
   8   6  -4  315.86  577.93   1
   8   6  -4  116.62   95.62   1
  -8  -6   5  131.18  101.45   1
  -8  -6   5  -24.15   70.34   1
   8   6  -5  268.05  359.94   1
   8   6  -5  369.22  571.47   1
   8   6  -5    5.31   98.30   1
  -8  -5   1 8951.63 1293.27   1
  -8  -5   1 8850.97 1292.27   1
   8   5  -1 9866.22 2032.76   1
   8   5  -110323.73 2039.26   1
   8   5  -1 8891.11 1298.55   1
  -8  -5   2 7469.24 1138.85   1
  -8  -5   2 8550.72 1139.95   1
   8   5  -2 8470.92 1795.17   1
   8   5  -210767.77 1851.91   1
   8   5  -2 7042.57 1144.09   1
  -8  -5   3 2020.78  306.33   1
  -8  -5   3 1943.43  302.66   1
   8   5  -3 2459.16  567.59   1
   8   5  -3 2281.73  638.25   1
   8   5  -3 1844.19  313.42   1
   8   5  -4   80.60  544.33   1
   8   5  -4   20.15   87.06   1
  -8  -5   5   52.05   69.95   1
  -8  -5   5   96.08   77.87   1
   8   5  -5 -222.64  351.11   1
   8   5  -5   44.58  591.69   1
   8   5  -5   16.54   96.89   1
  -8  -4   111491.92 1592.38   1
   8   4  -112088.92 2530.05   1
   8   4  -110362.50 1596.85   1
  -8  -4   219467.47 2860.57   1
  -8  -4   220739.41 2860.91   1
   8   4  -222063.38 4496.42   1
   8   4  -219534.20 2865.60   1
   8   4  -3 6925.91 1704.23   1
   8   4  -3 7184.92 1743.42   1
   8   4  -3 7578.08 1081.20   1
  -8  -4   4 1803.48  269.24   1
  -8  -4   4 1480.18  262.43   1
   8   4  -4 2008.94  533.25   1
   8   4  -4 1574.99  604.29   1
   8   4  -4 1888.29  274.79   1
  -8  -4   5  586.21  110.04   1
  -8  -4   5  501.76  104.47   1
   8   4  -5  412.98  400.34   1
   8   4  -5  713.44  609.64   1
   8   4  -5  426.40  135.03   1
  -8  -3   1 2051.08  327.49   1
  -8  -3   1 2418.31  332.38   1
   8   3  -1 2584.81  696.15   1
   8   3  -1 1939.80  338.04   1
  -8  -3   2 5514.47  839.72   1
  -8  -3   2 6089.28  839.32   1
   8   3  -2 5993.37 1362.39   1
   8   3  -2 5680.91  845.63   1
  -8  -3   3 3075.04  478.33   1
  -8  -3   3 3305.96  481.31   1
   8   3  -3 2100.51  912.23   1
   8   3  -3 3485.53  485.89   1
  -8  -3   4 1622.62  255.54   1
  -8  -3   4 1657.47  258.97   1
   8   3  -4 1258.18  661.22   1
   8   3  -4 1669.02  264.67   1
  -8  -3   5  633.45  119.16   1
  -8  -3   5  556.42  122.11   1
   8   3  -5  608.46  429.22   1
   8   3  -5  479.52  671.54   1
   8   3  -5  679.09  140.97   1
  -8  -3   6  544.19  113.90   1
   8   3  -6  366.80  495.19   1
   8   3  -6  610.82  832.61   1
  -8  -2   1  856.17  165.79   1
  -8  -2   1 1053.45  169.88   1
   8   2  -1 1058.68  489.42   1
   8   2  -1  997.52  170.56   1
  -8  -2   2  160.07   69.55   1
  -8  -2   2  204.67   70.01   1
   8   2  -2  463.21  460.84   1
   8   2  -2  177.10   79.19   1
  -8  -2   3  112.48   61.30   1
  -8  -2   3   93.72   64.06   1
   8   2  -3   52.01   79.23   1
  -8  -2   4  282.90   75.52   1
  -8  -2   4  250.00   91.12   1
   8   2  -4  230.15  618.06   1
   8   2  -4  159.34   91.51   1
  -8  -2   5 1502.40  220.19   1
   8   2  -5  871.78  663.59   1
   8   2  -5 1232.03  231.83   1
  -8  -2   6  823.77  154.07   1
  -8  -2   6 1033.15  158.45   1
   8   2  -6  818.31  170.76   1
  -8  -1   1 9832.31 1466.91   1
  -8  -1   110614.36 1467.88   1
   8   1  -1 9673.20 2319.84   1
   8   1  -110304.71 1472.62   1
  -8  -1   2 1749.44  275.68   1
  -8  -1   2 1831.84  279.43   1
   8   1  -2 1183.49  702.60   1
   8   1  -2 1849.83  288.12   1
  -8  -1   3  133.01   63.90   1
  -8  -1   3   77.71   64.45   1
   8   1  -3   23.34  524.71   1
   8   1  -3  180.94   82.78   1
  -8  -1   4  698.16  135.35   1
  -8  -1   4  742.21  132.79   1
   8   1  -4  500.57  712.70   1
   8   1  -4  675.33  151.08   1
  -8  -1   5 4036.39  626.49   1
  -8  -1   5 4546.27  627.87   1
   8   1  -5 3486.64 1281.91   1
   8   1  -5 4289.19  632.24   1
  -8   0   120736.37 3837.87   1
  -8   0   115283.91 2447.37   1
  -8   0   118274.84 2448.97   1
   8   0  -119553.25 3863.74   1
   8   0  -117495.66 2453.68   1
  -8   0   2 8001.91 1641.00   1
  -8   0   2 6543.50 1030.27   1
  -8   0   2 7484.95 1031.62   1
   8   0  -2 8334.66 1755.32   1
   8   0  -2 7311.11 1037.92   1
  -8   0   3  896.85  153.55   1
  -8   0   3  926.75  163.96   1
   8   0  -3  856.96  747.57   1
   8   0  -3  863.23  174.56   1
  -8   0   4  871.66  156.97   1
  -8   0   4 1006.46  166.00   1
   8   0  -4 1338.94  724.12   1
   8   0  -4  674.05  163.61   1
  -8   0   5 3698.97  557.59   1
  -8   0   5 4165.25  559.62   1
   8   0  -5 2461.25 1203.49   1
   8   0  -5 3458.22  565.74   1
  -8   1   1 7270.73 1608.68   1
  -8   1   1 6782.83 1005.32   1
  -8   1   1 7189.17 1007.09   1
   8  -1  -1 6733.50 1669.84   1
   8  -1  -1 6877.83 1012.10   1
  -8   1   2 2940.86  773.92   1
  -8   1   2 2843.78  433.36   1
  -8   1   2 3020.58  433.33   1
   8  -1  -2 2738.88  916.24   1
   8  -1  -2 2875.19  441.25   1
  -8   1   3  517.52  431.12   1
  -8   1   3  518.44  105.08   1
  -8   1   3  552.90  102.94   1
   8  -1  -3  349.40  937.17   1
   8  -1  -3  456.40  114.26   1
  -8   1   4  184.99  410.04   1
  -8   1   4  174.26   93.14   1
   8  -1  -4 -125.72  647.67   1
   8  -1  -4  138.37   77.66   1
  -8   2   1  308.07   83.82   1
  -8   2   1  374.27   88.54   1
   8  -2  -1  477.24  759.36   1
   8  -2  -1  385.11  103.58   1
  -8   2   2  136.10  436.96   1
  -8   2   2  146.43   68.21   1
  -8   2   2  190.24   66.71   1
   8  -2  -2  815.64  659.14   1
   8  -2  -2  145.78   86.12   1
  -8   2   3  137.65  459.03   1
  -8   2   3  409.07   90.20   1
  -8   2   3  370.60   86.04   1
   8  -2  -3  368.68  729.72   1
   8  -2  -3  363.13  100.16   1
  -8   3   1  742.96  535.79   1
  -8   3   1 1124.03  180.95   1
  -8   3   1 1152.83  183.39   1
   8  -3  -1 1039.01  650.22   1
   8  -3  -1 1048.90  195.15   1
  -8   3   2   30.24  477.05   1
  -8   3   2  292.77   80.32   1
  -8   3   2  319.08   78.48   1
   8  -3  -2  697.46  587.68   1
   8  -3  -2  223.35   97.86   1
   7  11  -1  115.82  369.24   1
   7  11  -1  218.74  415.06   1
   7  10  -1    1.04  290.65   1
   7  10  -1  245.48  352.30   1
   7  10  -2 2267.90  662.54   1
   7  10  -2 2844.63  703.78   1
   7  10  -3 2116.72  691.17   1
   7  10  -3 2817.02  727.74   1
   7   9  -1 1596.30  433.35   1
   7   9  -1 1438.37  509.51   1
   7   9  -2  113.40  265.58   1
   7   9  -2  206.00  466.58   1
   7   9  -3  185.09  363.48   1
   7   9  -3   78.32  417.55   1
   7   9  -4   34.62  413.13   1
   7   9  -4   11.23  409.80   1
   7   8  -1  611.35  295.28   1
   7   8  -1  779.75  379.05   1
   7   8  -2  562.31  307.17   1
   7   8  -2  765.35  394.70   1
   7   8  -3 1469.81  429.01   1
   7   8  -3 1526.80  544.36   1
   7   8  -4  998.94  419.59   1
   7   8  -4 1145.69  488.56   1
   7   8  -5   48.28  385.75   1
  -7  -7   1 2844.08  493.10   1
   7   7  -1 5002.98  782.08   1
   7   7  -1 5846.67  833.74   1
   7   7  -2  959.69  310.03   1
   7   7  -2 1013.04  375.63   1
  -7  -7   3   64.91   46.77   1
   7   7  -3  315.02  252.64   1
   7   7  -3   -0.47  370.64   1
  -7  -7   4  239.57   85.44   1
   7   7  -4  753.50  341.26   1
   7   7  -4  254.58   82.48   1
  -7  -7   5   47.94   59.57   1
  -7  -7   5  -13.57   73.22   1
   7   7  -5  141.36  312.60   1
   7   7  -5  349.86  450.68   1
  -7  -7   6  672.98  138.89   1
  -7  -7   6  785.10  149.20   1
   7   7  -6 1029.74  472.48   1
   7   7  -6 1654.13  621.24   1
   7   7  -6  602.91  147.08   1
  -7  -6   1 5961.09  974.70   1
  -7  -6   1 7104.11  975.17   1
   7   6  -1 8478.10 1531.32   1
   7   6  -1 8283.80 1534.49   1
  -7  -6   2 7139.38 1074.30   1
   7   6  -2 9467.07 1688.55   1
   7   6  -2 8821.28 1702.90   1
   7   6  -2 7326.58 1078.61   1
  -7  -6   3  123.21   57.11   1
   7   6  -3  218.18  233.66   1
   7   6  -3  334.14  317.57   1
   7   6  -3  118.64   69.43   1
  -7  -6   4  769.03  125.36   1
  -7  -6   4  692.13  129.68   1
   7   6  -4  550.71  269.93   1
   7   6  -4  782.46  373.89   1
   7   6  -4  584.17  131.04   1
  -7  -6   5    4.80   77.26   1
  -7  -6   5   47.15   65.52   1
   7   6  -5  -33.58  308.07   1
   7   6  -5  -38.12  469.01   1
   7   6  -5   34.69   80.75   1
  -7  -6   6  682.00  124.84   1
  -7  -6   6  562.31  134.58   1
   7   6  -6  504.11  321.61   1
   7   6  -6  473.64  137.98   1
  -7  -6   7  918.92  175.67   1
   7   6  -7  829.60  405.38   1
   7   6  -7  302.65  495.95   1
  -7  -5   1   73.88   51.05   1
  -7  -5   1   82.59   50.96   1
   7   5  -1   30.45  288.67   1
   7   5  -1    6.62  301.19   1
  -7  -5   2  402.66   98.15   1
  -7  -5   2  531.92   99.92   1
   7   5  -2  574.38  308.36   1
   7   5  -2  455.77  340.32   1
   7   5  -2  444.47  105.74   1
  -7  -5   3   68.86   62.80   1
  -7  -5   3   16.34   54.55   1
   7   5  -3   -0.43  242.72   1
   7   5  -3  179.15  314.84   1
   7   5  -3   77.74   73.05   1
  -7  -5   4 1681.96  267.38   1
   7   5  -4 1756.82  477.68   1
   7   5  -4 2231.13  613.56   1
   7   5  -4 1742.82  277.26   1
  -7  -5   5 1837.77  271.01   1
  -7  -5   5 1751.15  270.84   1
   7   5  -5 1399.83  441.85   1
   7   5  -5 1514.57  609.85   1
   7   5  -5 1654.44  273.64   1
  -7  -5   6  214.73   74.91   1
   7   5  -6  217.47  336.65   1
   7   5  -6  117.72   82.85   1
  -7  -5   7   35.60   74.83   1
  -7  -5   7   43.88   73.31   1
   7   5  -7   39.37  241.56   1
   7   5  -7  -33.50   82.05   1
  -7  -4   1  762.64  134.62   1
   7   4  -1  921.94  295.02   1
   7   4  -1  811.35  146.47   1
  -7  -4   2 1034.10  173.19   1
  -7  -4   2 1134.57  176.12   1
   7   4  -2 1257.54  419.54   1
   7   4  -2  981.61  182.86   1
  -7  -4   3  586.31  124.74   1
  -7  -4   3  721.34  126.52   1
   7   4  -3  917.23  344.33   1
   7   4  -3  877.65  471.02   1
   7   4  -3  608.50  135.75   1
  -7  -4   4  146.22   71.63   1
  -7  -4   4  109.11   64.10   1
   7   4  -4   76.40  239.09   1
   7   4  -4  181.32  372.44   1
   7   4  -4  141.76   65.37   1
   7   4  -5  132.13  265.18   1
   7   4  -5  172.32  435.55   1
   7   4  -5   -5.01   71.62   1
  -7  -4   6   63.62   77.06   1
  -7  -4   6   48.39   73.31   1
   7   4  -6  -19.12  236.31   1
   7   4  -6  193.76  447.84   1
   7   4  -6   66.87   83.07   1
  -7  -4   7  546.73   93.03   1
  -7  -4   7  483.18  102.47   1
   7   4  -7  499.86  294.48   1
   7   4  -7  741.66  531.28   1
   7   4  -7   43.82  106.32   1
  -7  -3   1 2586.16  420.50   1
  -7  -3   1 3161.12  421.39   1
   7   3  -1 3109.43  688.04   1
   7   3  -1 2705.21  424.95   1
  -7  -3   2  166.09   73.19   1
  -7  -3   2  174.30   62.51   1
   7   3  -2  183.72  363.68   1
   7   3  -2  212.33   87.83   1
  -7  -3   3  327.82   78.25   1
  -7  -3   3  342.83   80.35   1
   7   3  -3  424.10  427.77   1
   7   3  -3  260.48   96.69   1
  -7  -3   4  646.33  119.84   1
   7   3  -4  738.36  464.56   1
   7   3  -4  503.39  114.84   1
  -7  -3   5 5382.37  743.96   1
  -7  -3   5 5128.45  741.88   1
   7   3  -5 4822.48 1199.71   1
   7   3  -5 5591.97 1235.24   1
   7   3  -5 4731.59  745.87   1
  -7  -3   6 2298.31  326.85   1
  -7  -3   6 2315.97  325.77   1
   7   3  -6 2032.45  568.36   1
   7   3  -6 1812.33  761.82   1
   7   3  -6 1819.49  330.22   1
  -7  -3   7   48.42   73.04   1
  -7  -3   7  111.97   76.96   1
   7   3  -7  107.00  577.25   1
   7   3  -7   89.61   71.46   1
  -7  -3   8  279.38   74.25   1
  -7  -3   8  206.13   88.87   1
   7   3  -8   79.56   93.25   1
  -7  -2   1 4364.33  672.91   1
  -7  -2   1 4755.16  673.97   1
   7   2  -1 4490.35 1063.60   1
   7   2  -1 4856.00  679.07   1
  -7  -2   2  135.83   60.76   1
  -7  -2   2  126.02   61.31   1
   7   2  -2  242.15  367.65   1
   7   2  -2  134.51   73.25   1
  -7  -2   3 1697.70  257.75   1
  -7  -2   3 1722.61  260.52   1
   7   2  -3 2472.16  537.27   1
   7   2  -3 1500.35  261.89   1
  -7  -2   4  230.35   81.44   1
   7   2  -4  103.67  361.19   1
   7   2  -4  122.10   69.36   1
  -7  -2   5 3423.14  485.37   1
  -7  -2   5 3084.23  481.60   1
   7   2  -5 3330.59  898.93   1
   7   2  -5 3339.63  486.40   1
  -7  -2   6 3691.40  530.64   1
  -7  -2   6 3980.17  530.39   1
   7   2  -6 3692.93  997.96   1
   7   2  -6 3022.06  536.05   1
  -7  -2   7  205.30   70.77   1
  -7  -2   7  297.11   68.45   1
   7   2  -7  131.69  366.30   1
   7   2  -7  393.10  641.92   1
   7   2  -7  134.56   82.56   1
  -7  -2   8  627.18  119.84   1
  -7  -2   8  358.87   96.76   1
   7   2  -8  216.20  360.07   1
   7   2  -8 -138.31  513.04   1
   7   2  -8  304.94  103.58   1
  -7  -1   1  918.62  293.36   1
  -7  -1   1  821.15  147.23   1
  -7  -1   1  893.64  147.99   1
   7   1  -1  665.40  432.89   1
   7   1  -1 1039.98  159.33   1
  -7  -1   2  382.29   79.72   1
   7   1  -2  488.43  388.09   1
   7   1  -2  336.48   91.13   1
  -7  -1   3 6452.74  957.07   1
  -7  -1   3 6621.63  956.54   1
   7   1  -3 8442.81 1561.52   1
   7   1  -3 6752.81  961.03   1
  -7  -1   4 2596.14  398.69   1
  -7  -1   4 2821.43  396.72   1
   7   1  -4 2890.10  807.97   1
   7   1  -4 2515.43  401.69   1
  -7  -1   5  472.61  109.09   1
  -7  -1   5  428.81  100.13   1
   7   1  -5  504.62  573.24   1
   7   1  -5  540.21  106.58   1
  -7  -1   6   53.68   56.46   1
  -7  -1   6   64.66   63.89   1
   7   1  -6  -11.95  731.79   1
   7   1  -6   46.65   85.65   1
  -7  -1   7  227.13   82.09   1
  -7  -1   7  182.52   67.85   1
   7   1  -7  290.96  519.30   1
   7   1  -7  143.56   93.19   1
  -7  -1   8  646.05  112.02   1
   7   1  -8  236.63  448.85   1
   7   1  -8   23.69  556.22   1
   7   1  -8  375.46  111.78   1
  -7   0   1  111.81  186.43   1
  -7   0   1   74.30   47.27   1
  -7   0   1  156.44   60.26   1
   7   0  -1   34.13  316.61   1
   7   0  -1   67.46   56.59   1
  -7   0   2  303.00  321.46   1
  -7   0   2  159.55   62.58   1
  -7   0   2  138.19   57.22   1
   7   0  -2   99.66  532.99   1
   7   0  -2  172.60   71.97   1
  -7   0   3  568.24  344.58   1
  -7   0   3  599.24  102.94   1
  -7   0   3  507.41  107.27   1
   7   0  -3  580.97  480.93   1
   7   0  -3  589.46  110.06   1
  -7   0   4  274.20  322.17   1
  -7   0   4  228.52   64.41   1
  -7   0   4  286.13   68.67   1
   7   0  -4  329.08  597.03   1
   7   0  -4  306.20   75.30   1
  -7   0   5  148.40   49.52   1
  -7   0   5   84.68   65.84   1
   7   0  -5  404.29  745.97   1
   7   0  -5  112.18   64.44   1
  -7   0   6  259.95   71.72   1
  -7   0   6  179.18   67.25   1
   7   0  -6  297.38  603.88   1
   7   0  -6  156.57   81.53   1
  -7   0   7  371.45   92.98   1
  -7   0   7  334.56   79.75   1
   7   0  -7  260.49  616.42   1
   7   0  -7  222.00   91.12   1
  -7   0   8    8.85   57.22   1
   7   0  -8  220.17  537.61   1
   7   0  -8    0.89   87.49   1
  -7   1   1  203.01  198.52   1
  -7   1   1  105.47   49.55   1
  -7   1   1  115.46   53.09   1
   7  -1  -1  290.05  344.98   1
   7  -1  -1   89.26   61.38   1
  -7   1   2  227.01  346.47   1
  -7   1   2   -2.83   44.47   1
  -7   1   2   27.26   58.13   1
   7  -1  -2 -128.11  503.87   1
   7  -1  -2   66.98   52.94   1
  -7   1   3 2358.82  527.41   1
  -7   1   3 1738.47  265.13   1
  -7   1   3 1637.89  264.33   1
   7  -1  -3 2201.93  767.21   1
   7  -1  -3 1762.46  270.42   1
  -7   1   4 4978.85  980.62   1
  -7   1   4 3604.13  592.70   1
  -7   1   4 4259.30  593.02   1
   7  -1  -4 5696.91 1144.93   1
   7  -1  -4 4179.08  597.81   1
  -7   1   5 2970.61  706.71   1
  -7   1   5 2756.14  398.30   1
  -7   1   5 2665.10  398.84   1
   7  -1  -5 2591.38  873.39   1
   7  -1  -5 2536.80  402.93   1
  -7   1   6   28.79  442.40   1
  -7   1   6   22.77   52.71   1
  -7   1   6   57.43   67.47   1
   7  -1  -6 -644.34  620.65   1
   7  -1  -6  -46.73   68.32   1
  -7   1   7  350.84   87.50   1
  -7   1   7  255.42   71.83   1
   7  -1  -7  223.56  518.78   1
   7  -1  -7  104.49   85.99   1
  -7   2   1  103.60  256.09   1
  -7   2   1  320.08   77.06   1
  -7   2   1  304.27   72.58   1
   7  -2  -1  600.34  376.02   1
   7  -2  -1  305.51   91.76   1
  -7   2   2 2328.52  580.21   1
  -7   2   2 2019.43  303.75   1
  -7   2   2 1963.71  304.06   1
   7  -2  -2 3622.36  921.27   1
   7  -2  -2 1936.41  309.46   1
  -7   2   3  230.90  381.31   1
  -7   2   3   14.18   44.22   1
  -7   2   3    8.40   55.65   1
   7  -2  -3   -0.30  574.52   1
   7  -2  -3  -16.87   51.89   1
  -7   2   4 3088.22  898.33   1
  -7   2   4 3782.62  531.39   1
  -7   2   4 3509.39  529.77   1
   7  -2  -4 2889.06 1020.82   1
   7  -2  -4 3670.74  536.23   1
  -7   2   5 1393.81  703.11   1
  -7   2   5 2209.58  339.01   1
  -7   2   5 2318.44  339.25   1
   7  -2  -5 2280.80  729.98   1
   7  -2  -5 2330.06  347.37   1
  -7   2   6 -146.26  414.69   1
  -7   2   6    0.12   52.37   1
  -7   2   6  -36.52   67.95   1
   7  -2  -6  -44.94   67.17   1
  -7   2   7  840.17  548.08   1
  -7   2   7  850.07  154.92   1
  -7   2   7  960.52  157.64   1
   7  -2  -7  498.37  572.12   1
   7  -2  -7  962.29  165.19   1
  -7   3   1 2212.38  600.52   1
  -7   3   1 2330.72  359.86   1
  -7   3   1 2438.61  359.60   1
   7  -3  -1 1966.84  754.60   1
   7  -3  -1 2485.56  367.41   1
  -7   3   2 6861.19 1461.56   1
  -7   3   2 6505.86  913.95   1
  -7   3   2 6218.33  913.44   1
   7  -3  -2 5404.91 1555.37   1
   7  -3  -2 6161.88  919.13   1
  -7   3   3 3318.07  771.01   1
  -7   3   3 3171.46  439.71   1
  -7   3   3 2831.53  437.80   1
   7  -3  -3 2558.59  841.06   1
   7  -3  -3 2833.27  445.37   1
  -7   3   4 -145.19  391.89   1
  -7   3   4  -15.35   69.87   1
  -7   3   4   40.37   50.41   1
   7  -3  -4  175.10  538.17   1
   7  -3  -4  -21.31   81.29   1
  -7   3   5   76.16  426.65   1
  -7   3   5  121.36   60.81   1
  -7   3   5  163.84   63.45   1
   7  -3  -5  159.47   75.36   1
  -7   3   6  102.72  457.35   1
  -7   3   6  153.51   72.56   1
  -7   3   6  313.51   76.22   1
   7  -3  -6  231.45  397.74   1
   7  -3  -6  347.69   86.30   1
  -7   4   1  170.07  275.55   1
  -7   4   1   62.86   71.90   1
  -7   4   1    6.51   60.95   1
   7  -4  -1   62.62  384.07   1
   7  -4  -1  121.39   94.64   1
  -7   4   2  796.75  416.60   1
  -7   4   2 1129.43  174.16   1
  -7   4   2 1020.68  172.67   1
   7  -4  -2 1197.01  590.29   1
   7  -4  -2  992.96  182.41   1
  -7   4   3  -28.24  351.90   1
  -7   4   3  269.78   78.53   1
  -7   4   3  283.97   74.62   1
   7  -4  -3   77.36  491.84   1
   7  -4  -3  328.96   88.64   1
  -7   4   4  -24.58  353.78   1
  -7   4   4   38.87   59.35   1
  -7   4   4   36.81   53.89   1
   7  -4  -4  -54.45  440.69   1
  -7   4   5  -82.90  380.76   1
  -7   5   1   62.22  305.92   1
  -7   5   1  171.09   66.44   1
  -7   5   1  181.34   70.05   1
   7  -5  -1  305.23  443.06   1
   7  -5  -1  147.61   87.67   1
  -7   5   2  603.34  426.17   1
  -7   5   2  829.68  145.23   1
  -7   5   2  790.44  142.72   1
   7  -5  -2 1375.27  596.98   1
   7  -5  -2  842.47  157.65   1
   6  11  -1  108.93  293.33   1
   6  11  -2 1352.51  448.98   1
   6  11  -3 1679.22  542.87   1
   6  10  -1  848.38  343.79   1
   6  10  -2 1800.92  575.84   1
   6  10  -4  491.31  365.88   1
   6   9  -113432.14 3001.79   1
   6   9  -2 5486.14 1251.57   1
   6   9  -3 1277.20  456.22   1
   6   9  -3 1807.58  465.78   1
   6   9  -4 1871.27  536.51   1
   6   9  -4 2111.80  621.90   1
   6   9  -5 4378.24 1144.59   1
   6   9  -5 5070.02 1196.94   1
   6   9  -6 5157.08 1277.72   1
   6   8  -122774.32 4776.73   1
   6   8  -120259.30 4775.78   1
   6   8  -210032.14 2260.36   1
   6   8  -210193.46 2267.20   1
   6   8  -3  244.26  288.89   1
   6   8  -3  336.25  308.45   1
   6   8  -4  208.87  322.71   1
   6   8  -4  207.39  405.27   1
   6   8  -5 1817.77  529.43   1
   6   8  -5 1680.20  532.14   1
   6   8  -6 4526.33 1157.66   1
   6   8  -6 5113.36 1165.46   1
   6   8  -7 1711.04  764.10   1
   6   8  -7 1878.17  666.15   1
   6   7  -1 7441.29 1785.56   1
   6   7  -1 8767.07 1794.09   1
   6   7  -2 4628.04 1136.79   1
   6   7  -2 5431.76 1154.20   1
   6   7  -3  144.73  230.62   1
   6   7  -3  283.75  297.66   1
   6   7  -4  409.85  232.48   1
   6   7  -4  478.56  328.10   1
   6   7  -5  261.31  242.94   1
   6   7  -5   80.30  336.58   1
  -6  -7   6  520.92  113.03   1
   6   7  -6  667.98  384.26   1
   6   7  -6 1234.55  457.26   1
  -6  -7   7  775.25  150.70   1
   6   7  -7  477.28  419.64   1
   6   7  -7  771.64  434.72   1
   6   6  -1 6854.58 1377.67   1
   6   6  -1 5394.62 1378.40   1
  -6  -6   2 5432.41  781.19   1
  -6  -6   2 4916.46  780.21   1
   6   6  -2 6411.30 1220.80   1
   6   6  -2 8375.86 1242.29   1
   6   6  -2 5303.32  784.60   1
  -6  -6   3 4177.00  572.43   1
   6   6  -3 3718.14  890.53   1
   6   6  -3 5781.06  914.91   1
   6   6  -3 3307.25  574.59   1
  -6  -6   4 2050.80  305.09   1
  -6  -6   4 1840.33  305.21   1
   6   6  -4 2372.66  502.42   1
   6   6  -4 2874.29  524.84   1
   6   6  -5 2676.19  501.63   1
   6   6  -5 2976.41  556.05   1
   6   6  -5 1660.97  296.24   1
  -6  -6   6 1297.14  185.13   1
   6   6  -6 1400.79  364.67   1
   6   6  -6  875.35  182.88   1
  -6  -6   7  460.33  108.51   1
  -6  -6   7  895.96  129.31   1
   6   6  -7  452.90  278.10   1
   6   6  -7  571.24  344.37   1
   6   6  -7  382.13  119.44   1
  -6  -6   8  352.26   95.66   1
  -6  -6   8  538.13  109.45   1
   6   6  -8   80.25   87.77   1
  -6  -5   110000.21 1442.00   1
   6   5  -110968.27 2241.73   1
   6   5  -110365.91 2244.62   1
   6   5  -1 9872.56 1444.93   1
  -6  -5   2 6129.64  895.60   1
  -6  -5   2 6416.88  894.42   1
   6   5  -2 6636.10 1398.46   1
   6   5  -2 7129.91 1410.76   1
   6   5  -2 5725.10  897.66   1
  -6  -5   3 5140.03  783.31   1
  -6  -5   3 5268.51  782.92   1
   6   5  -3 6968.60 1230.13   1
   6   5  -3 7507.32 1234.72   1
   6   5  -3 5390.62  786.86   1
  -6  -5   414691.33 2002.98   1
   6   5  -413877.88 3118.84   1
   6   5  -418533.94 3136.31   1
   6   5  -412686.88 2003.78   1
  -6  -5   517116.52 2316.75   1
  -6  -5   517037.04 2317.65   1
   6   5  -515299.63 3608.86   1
   6   5  -521196.92 3625.73   1
   6   5  -513927.43 2317.47   1
  -6  -5   6 6184.01  910.81   1
  -6  -5   6 6470.25  911.95   1
   6   5  -6 5873.44 1432.85   1
  -6  -5   7  983.42  132.59   1
  -6  -5   7 1007.49  134.96   1
   6   5  -7  726.50  244.48   1
   6   5  -7  571.56  375.93   1
   6   5  -7   77.43  125.92   1
  -6  -5   8  397.08   94.01   1
  -6  -5   8  513.96  115.15   1
   6   5  -8   18.79   76.17   1
  -6  -5   9  796.07  159.73   1
   6   5  -9  -47.61  154.24   1
  -6  -4   1 7347.22 1051.30   1
  -6  -4   1 7659.60 1050.46   1
   6   4  -1 7003.69 1635.08   1
   6   4  -1 6787.58 1053.51   1
  -6  -4   2  167.31   57.61   1
   6   4  -2  264.90  163.41   1
   6   4  -2  188.22  195.88   1
   6   4  -2  158.74   62.12   1
  -6  -4   3  285.92   67.12   1
  -6  -4   3  280.29   70.72   1
   6   4  -3  247.88  253.03   1
   6   4  -3  293.11  328.73   1
   6   4  -3  178.47   70.61   1
  -6  -4   4 5103.74  725.40   1
  -6  -4   4 4832.84  724.47   1
   6   4  -4 5258.08 1136.70   1
   6   4  -4 6416.47 1152.16   1
   6   4  -4 4851.48  727.40   1
  -6  -4   512786.40 1813.07   1
  -6  -4   512963.31 1813.56   1
   6   4  -512738.46 2823.52   1
   6   4  -512217.80 1814.48   1
  -6  -4   6 7971.92 1146.87   1
  -6  -4   6 9190.68 1150.07   1
   6   4  -6 5689.58 1777.61   1
   6   4  -6 7176.89 1148.48   1
  -6  -4   7  198.11   73.36   1
  -6  -4   7  206.07   59.45   1
   6   4  -7  -33.24  173.63   1
   6   4  -7   28.31   58.69   1
  -6  -4   8  197.53   79.94   1
  -6  -4   8  269.07   64.78   1
   6   4  -8  -10.65   61.80   1
  -6  -4   9   74.64   81.73   1
  -6  -4   9  184.24   83.99   1
   6   4  -9    5.81   84.66   1
  -6  -3   1 6174.04  924.03   1
  -6  -3   1 6307.43  923.48   1
   6   3  -1 7475.59 1441.10   1
   6   3  -1 6708.88  927.44   1
  -6  -3   2  289.45   67.74   1
  -6  -3   2  276.46   73.89   1
   6   3  -2  262.07  223.28   1
   6   3  -2  233.29   70.89   1
  -6  -3   3 3948.44  589.05   1
  -6  -3   3 4066.14  589.58   1
   6   3  -3 4662.05  973.29   1
  -6  -3   4  262.72   68.17   1
  -6  -3   4  211.49   70.48   1
   6   3  -4  257.41  366.70   1
   6   3  -4  122.11   69.48   1
  -6  -3   5 4646.63  715.91   1
  -6  -3   5 5112.56  716.27   1
   6   3  -5 5030.58 1125.82   1
   6   3  -5 5524.19 1136.69   1
   6   3  -5 4995.99  719.29   1
  -6  -3   6 3365.56  488.87   1
  -6  -3   6 3521.60  490.17   1
   6   3  -6 2897.40  767.38   1
   6   3  -6 2620.71  776.39   1
   6   3  -6 3167.01  490.13   1
  -6  -3   7  367.00   93.33   1
  -6  -3   7  448.48   97.83   1
   6   3  -7  134.09  193.78   1
   6   3  -7  -15.95  303.33   1
   6   3  -7  368.75   86.68   1
  -6  -3   8  135.05   62.74   1
  -6  -3   8  117.29   69.32   1
   6   3  -8   38.13   65.70   1
  -6  -3   9   18.74   72.98   1
  -6  -3   9   83.29   68.52   1
   6   3  -9  -41.86   70.60   1
  -6  -2   113611.99 1951.75   1
   6   2  -113895.53 3042.53   1
   6   2  -113680.52 1955.25   1
  -6  -2   2 4842.79  736.43   1
  -6  -2   2 5178.07  736.90   1
   6   2  -2 6236.05 1156.06   1
   6   2  -2 5127.22  739.42   1
  -6  -2   3 1975.43  314.20   1
  -6  -2   3 2171.29  314.61   1
   6   2  -3 2570.30  583.60   1
   6   2  -3 2126.78  318.05   1
  -6  -2   4 2848.54  418.28   1
  -6  -2   4 3186.99  422.09   1
   6   2  -4 3544.30  706.43   1
   6   2  -4 2360.32  419.76   1
  -6  -2   5 5163.84  780.98   1
  -6  -2   5 5677.49  780.05   1
   6   2  -5 5193.42 1226.18   1
   6   2  -5 5316.34  783.45   1
  -6  -2   6 5331.24  770.93   1
  -6  -2   6 5524.94  769.95   1
   6   2  -6 5062.79 1230.38   1
   6   2  -6 5052.42  771.72   1
  -6  -2   7 2957.47  430.62   1
  -6  -2   7 2928.59  428.38   1
   6   2  -7 2275.19  678.09   1
   6   2  -7 2865.97  432.11   1
  -6  -2   8 3045.83  461.63   1
  -6  -2   8 3517.03  463.78   1
   6   2  -8 2744.39  461.32   1
  -6  -2   9 2254.15  308.05   1
  -6  -2   9 2277.38  307.11   1
   6   2  -9 1379.34  311.16   1
  -6  -2  10  896.35  141.94   1
   6   2 -10  540.08  141.94   1
  -6  -1   115278.44 3188.28   1
  -6  -1   113636.83 2045.82   1
  -6  -1   114898.21 2045.83   1
   6   1  -113801.95 3190.72   1
   6   1  -114288.42 2049.63   1
  -6  -1   212035.07 2365.59   1
  -6  -1   2 9770.36 1518.29   1
  -6  -1   211016.41 1519.30   1
   6   1  -211484.46 2372.59   1
   6   1  -210827.26 1521.67   1
  -6  -1   318047.46 2670.78   1
  -6  -1   319117.42 2670.05   1
   6   1  -322123.31 4183.71   1
   6   1  -318689.76 2673.07   1
  -6  -1   415438.80 2159.40   1
  -6  -1   416270.40 2159.98   1
   6   1  -422148.31 3391.20   1
   6   1  -412837.32 2160.67   1
  -6  -1   5 8777.86 1254.80   1
  -6  -1   5 8045.72 1254.17   1
   6   1  -512188.82 2003.07   1
   6   1  -5 9263.18 1256.81   1
  -6  -1   6 2514.92  350.91   1
  -6  -1   6 2127.81  348.69   1
   6   1  -6 1816.84  615.08   1
   6   1  -6 2444.31  352.99   1
  -6  -1   7 2523.16  361.02   1
  -6  -1   7 2333.77  361.14   1
   6   1  -7 1396.93  644.50   1
   6   1  -7 2421.40  362.65   1
  -6  -1   8 6418.69  839.25   1
  -6  -1   8 6330.02  839.82   1
   6   1  -8 3161.80 1304.37   1
   6   1  -8 4401.97 1328.21   1
   6   1  -8 4973.55  841.09   1
  -6  -1   9 7719.77 1121.48   1
  -6  -1   9 9036.38 1124.74   1
   6   1  -9 6518.48 1123.52   1
  -6  -1  10 3044.20  455.09   1
  -6  -1  10 3924.06  458.83   1
   6   1 -10 2122.10  457.26   1
  -6   0   1  228.17  113.71   1
  -6   0   1  244.96   68.54   1
  -6   0   1  350.55   80.60   1
   6   0  -1  413.83  322.09   1
   6   0  -1  330.31   74.55   1
  -6   0   2  302.38  163.64   1
  -6   0   2  146.78   51.65   1
  -6   0   2  163.28   56.95   1
   6   0  -2  170.01  262.02   1
   6   0  -2  225.44   63.04   1
  -6   0   3 9242.35 1694.86   1
  -6   0   3 7373.42 1080.44   1
  -6   0   3 7472.16 1080.09   1
   6   0  -3 9327.73 1734.79   1
   6   0  -3 7302.64 1083.39   1
  -6   0   417751.30 3277.32   1
  -6   0   415427.74 2094.61   1
  -6   0   414674.50 2093.62   1
   6   0  -419714.19 3302.88   1
   6   0  -412741.10 2096.46   1
  -6   0   5 7026.68 1293.32   1
  -6   0   5 5516.26  822.37   1
  -6   0   5 5281.57  821.78   1
   6   0  -5 7438.30 1376.10   1
   6   0  -5 5997.39  825.37   1
  -6   0   6  165.92   54.72   1
  -6   0   6  151.34   53.35   1
   6   0  -6  396.92  508.24   1
   6   0  -6  166.04   59.93   1
  -6   0   7  165.37   51.96   1
  -6   0   7  156.39   65.44   1
   6   0  -7 -309.49  501.91   1
   6   0  -7  170.19   60.32   1
  -6   0   8  513.86  101.36   1
  -6   0   8  489.05   96.98   1
   6   0  -8  164.66  363.49   1
   6   0  -8  478.48  103.63   1
  -6   0   9 4274.13  637.17   1
  -6   0   9 4860.10  638.60   1
   6   0  -9 3885.03  640.68   1
  -6   1   1 3369.23  763.69   1
  -6   1   1 3193.99  481.97   1
  -6   1   1 3498.60  483.44   1
   6  -1  -1 3054.98  826.43   1
   6  -1  -1 3082.74  486.29   1
  -6   1   2 1259.67  385.99   1
  -6   1   2 1428.07  229.00   1
  -6   1   2 1500.42  230.15   1
   6  -1  -2 1529.07  449.15   1
   6  -1  -2 1606.17  234.01   1
  -6   1   3  830.50  343.35   1
  -6   1   3  790.33  129.49   1
  -6   1   3  773.76  130.57   1
   6  -1  -3 1439.82  456.41   1
   6  -1  -3  705.86  134.38   1
  -6   1   4 8215.96 1569.18   1
  -6   1   4 6845.49  994.25   1
  -6   1   4 6299.38  993.57   1
   6  -1  -410681.26 1629.43   1
   6  -1  -4 7367.86  997.66   1
  -6   1   5 6461.81 1225.01   1
  -6   1   5 5167.08  769.39   1
  -6   1   5 5216.69  769.29   1
   6  -1  -5 6480.88 1318.49   1
   6  -1  -5 5365.90  772.31   1
  -6   1   6  231.34  299.71   1
  -6   1   6  140.84   53.33   1
  -6   1   6   43.40   46.34   1
   6  -1  -6   27.02  391.26   1
   6  -1  -6  135.18   56.24   1
  -6   1   7  529.17  408.68   1
  -6   1   7  846.60  137.44   1
  -6   1   7  829.43  137.91   1
   6  -1  -7  758.30  409.13   1
   6  -1  -7  846.32  142.89   1
  -6   1   8  100.39   67.21   1
  -6   1   8   62.17   54.39   1
   6  -1  -8  224.88  333.12   1
   6  -1  -8  105.00   82.07   1
  -6   1   9 1159.65  200.40   1
  -6   1   9 1405.11  206.15   1
   6  -1  -9 1186.87  209.14   1
  -6   2   1 3497.77  810.00   1
  -6   2   1 3339.14  511.18   1
  -6   2   1 3718.13  511.12   1
   6  -2  -1 3326.30  832.17   1
   6  -2  -1 3345.45  515.74   1
  -6   2   2  920.99  273.02   1
  -6   2   2  734.34  124.18   1
  -6   2   2  664.24  124.82   1
   6  -2  -2 1120.82  434.37   1
   6  -2  -2  745.04  130.42   1
  -6   2   3 3144.04  706.38   1
  -6   2   3 2722.23  422.41   1
  -6   2   3 2812.34  422.62   1
   6  -2  -3 3803.93  937.42   1
   6  -2  -3 2998.70  427.40   1
  -6   2   412421.78 2418.27   1
  -6   2   410628.99 1537.21   1
  -6   2   410346.69 1536.11   1
   6  -2  -411124.49 1540.59   1
  -6   2   5 8257.11 1452.77   1
  -6   2   5 7011.62  914.63   1
  -6   2   5 6877.12  913.99   1
   6  -2  -5 8005.30 1486.33   1
   6  -2  -5 4434.90  915.43   1
  -6   2   6 5029.90 1163.36   1
  -6   2   6 4890.24  720.20   1
  -6   2   6 4645.44  719.15   1
   6  -2  -6 5235.17 1189.53   1
   6  -2  -6 5400.77  723.59   1
  -6   2   7 1940.80  607.21   1
  -6   2   7 2099.00  328.09   1
  -6   2   7 2266.39  329.02   1
   6  -2  -7 2123.79  617.34   1
   6  -2  -7 2193.42  332.97   1
  -6   2   8 2742.66  748.32   1
  -6   2   8 2855.37  434.01   1
  -6   2   8 2907.23  434.84   1
   6  -2  -8 1998.28  738.71   1
   6  -2  -8 3150.29  438.57   1
  -6   2   9 2257.97  346.29   1
  -6   2   9 2620.14  345.87   1
   6  -2  -9 1010.32  586.03   1
   6  -2  -9 2065.94  350.28   1
  -6   3   1 9082.71 2221.06   1
  -6   3   1 9980.85 1423.60   1
  -6   3   110179.62 1422.94   1
   6  -3  -1 8878.88 2244.70   1
   6  -3  -1 9629.51 1427.85   1
  -6   3   211425.91 2374.31   1
  -6   3   210801.74 1521.08   1
  -6   3   210878.39 1520.96   1
   6  -3  -211733.55 2395.79   1
   6  -3  -2 9764.83 1524.66   1
  -6   3   311792.87 2259.13   1
  -6   3   310009.83 1436.48   1
  -6   3   3 9859.92 1435.80   1
   6  -3  -311129.16 2278.96   1
   6  -3  -3 9913.05 1439.81   1
  -6   3   4 7129.55 1397.21   1
  -6   3   4 6421.44  877.59   1
  -6   3   4 5706.15  875.91   1
   6  -3  -4 9583.64 1442.62   1
   6  -3  -4 5760.87  880.16   1
  -6   3   5 4554.14  956.66   1
  -6   3   5 3809.44  583.95   1
  -6   3   5 3805.30  583.62   1
   6  -3  -5 4583.48 1005.41   1
   6  -3  -5 4360.44  588.65   1
  -6   3   6 3290.16  496.22   1
  -6   3   6 3760.79  497.18   1
   6  -3  -6 2214.68  819.75   1
   6  -3  -6 3080.69  499.44   1
  -6   3   7 4741.28 1417.43   1
  -6   3   7 5801.74  861.08   1
  -6   3   7 6189.58  860.61   1
   6  -3  -7 4889.00 1382.79   1
   6  -3  -7 6018.59  864.19   1
  -6   3   8 2647.85 1453.44   1
  -6   3   8 6025.38  900.67   1
  -6   3   8 6747.25  900.75   1
   6  -3  -8 4502.12 1444.99   1
   6  -3  -8 6342.48  904.14   1
  -6   4   1  821.34  319.72   1
  -6   4   1  812.45  140.07   1
  -6   4   1  930.77  140.72   1
   6  -4  -1  565.44  386.55   1
   6  -4  -1  758.31  147.67   1
  -6   4   2 4755.98 1134.90   1
  -6   4   2 5017.56  719.02   1
  -6   4   2 5169.07  718.98   1
   6  -4  -2 5140.35 1183.73   1
   6  -4  -2 4533.80  723.42   1
  -6   4   3 8529.07 1508.11   1
  -6   4   3 6623.31  946.25   1
  -6   4   3 6327.88  945.69   1
   6  -4  -3 8054.45 1539.96   1
   6  -4  -3 6441.90  950.28   1
  -6   4   4 1664.31  544.38   1
  -6   4   4 1907.42  287.29   1
  -6   4   4 1880.67  285.64   1
   6  -4  -4 1859.16  564.84   1
   6  -4  -4 1891.06  292.56   1
  -6   4   5    0.89  382.53   1
  -6   4   5  228.70   72.93   1
  -6   4   5  126.07   71.17   1
   6  -4  -5  222.78  335.39   1
   6  -4  -5  101.99   86.97   1
  -6   4   6  -17.99  383.27   1
  -6   4   6  245.45   71.53   1
  -6   4   6  329.65   75.82   1
   6  -4  -6  188.92  341.28   1
   6  -4  -6  240.34   84.39   1
  -6   4   7  717.34  448.29   1
  -6   4   7  888.92  144.46   1
  -6   4   7  892.61  145.99   1
   6  -4  -7  687.39  361.51   1
   6  -4  -7  759.52  151.27   1
  -6   5   1 1190.78  359.40   1
  -6   5   1  953.50  163.51   1
  -6   5   1 1038.91  167.81   1
   6  -5  -1  902.58  433.28   1
   6  -5  -1 1029.02  172.87   1
  -6   5   2 1024.08  396.70   1
  -6   5   2 1334.09  203.20   1
  -6   5   2 1251.70  202.54   1
   6  -5  -2  772.98  450.43   1
   6  -5  -2 1255.26  208.96   1
  -6   5   3 6303.46 1423.69   1
  -6   5   3 6613.41  872.90   1
  -6   5   3 5625.20  871.38   1
   6  -5  -3 4931.58 1389.19   1
   6  -5  -3 5881.36  877.26   1
  -6   5   4 2667.69  806.21   1
  -6   5   4 3114.76  433.36   1
  -6   5   4 2778.49  430.64   1
   6  -5  -4 3029.50  785.19   1
   6  -5  -4 2868.60  437.57   1
  -6   5   5   57.25  383.86   1
  -6   5   5  169.84   64.00   1
  -6   5   5  223.09   65.13   1
   6  -5  -5  133.95  420.66   1
   6  -5  -5  133.23   75.62   1
  -6   5   6  533.26  425.67   1
  -6   5   6  447.84   92.10   1
  -6   5   6  397.84   92.64   1
   6  -5  -6  528.69  328.19   1
   6  -5  -6  401.03  100.41   1
  -6   6   1  250.16  376.87   1
  -6   6   1  569.70  101.32   1
  -6   6   1  425.04  101.70   1
   6  -6  -1  355.51  368.21   1
   6  -6  -1  474.50  114.22   1
  -6   6   2 2858.83  755.67   1
  -6   6   2 3033.05  435.56   1
  -6   6   2 2834.34  434.02   1
   6  -6  -2 2763.28  756.71   1
   6  -6  -2 2938.01  444.73   1
  -6   6   3 7131.50 1623.98   1
  -6   6   3 7376.76 1017.02   1
  -6   6   3 7082.65 1014.77   1
   6  -6  -3 7370.47 1630.97   1
   6  -6  -3 6414.08 1021.44   1
  -6   6   4 5691.96 1294.47   1
  -6   6   4 5681.56  794.71   1
  -6   6   4 5489.91  792.47   1
   6  -6  -4 5437.08 1283.87   1
   6  -6  -4 5091.53  799.06   1
  -6   6   5  871.31  610.61   1
  -6   6   5 2124.35  297.11   1
  -6   6   5 1931.08  295.24   1
   6  -6  -5 2048.26  562.67   1
   6  -6  -5 1764.84  301.58   1
  -6   7   1 2166.93  601.07   1
  -6   7   1 2042.87  308.29   1
  -6   7   1 1971.09  311.91   1
   6  -7  -1 1863.16  600.68   1
   6  -7  -1 2052.75  317.42   1
   5  12  -1   38.08  376.63   1
   5  12  -2  136.64  398.25   1
   5  11  -1 1275.24  410.93   1
   5  11  -2  -21.78  332.74   1
   5  11  -3  158.86  422.00   1
   5  11  -4  409.77  413.26   1
   5  10  -1 1477.20  436.44   1
   5  10  -2 1144.52  415.92   1
   5  10  -3 4463.07 1066.61   1
   5  10  -4 1664.01  497.84   1
   5  10  -5  361.54  531.01   1
   5   9  -1 1149.80  353.43   1
   5   9  -2  178.06  336.36   1
   5   9  -3 6257.62 1428.25   1
   5   9  -4 5924.60 1365.11   1
   5   9  -5  228.20  367.28   1
   5   9  -6  225.84  515.02   1
   5   9  -6  243.04  412.66   1
   5   9  -7  144.47  611.75   1
   5   8  -1 4123.17  935.64   1
   5   8  -2 2031.37  500.75   1
   5   8  -3  222.46  238.45   1
   5   8  -4  162.26  294.09   1
   5   8  -5  113.54  300.46   1
   5   8  -5  190.06  257.16   1
   5   8  -6  536.00  355.98   1
   5   8  -6  764.53  402.48   1
   5   8  -7  405.09  462.62   1
   5   8  -7  209.82  413.57   1
   5   8  -8  242.34  398.04   1
   5   7  -1 1017.49  275.33   1
   5   7  -2  985.66  323.88   1
   5   7  -3 1543.38  389.59   1
   5   7  -4 3331.02  843.84   1
   5   7  -4 4021.86  852.28   1
   5   7  -5 2655.43  673.94   1
   5   7  -5 2812.43  691.04   1
   5   7  -6  -60.89  243.86   1
   5   7  -6   27.75  217.56   1
  -5  -7   7   71.57   61.44   1
   5   7  -7   83.14  367.10   1
   5   7  -7  120.06  244.33   1
   5   7  -7   56.80   51.99   1
  -5  -7   8   11.75   69.36   1
   5   7  -8   21.34   56.17   1
  -5  -7   9  315.09   90.54   1
   5   7  -9   38.99   86.73   1
   5   6  -1 3029.97  692.44   1
   5   6  -2 7729.71 1839.42   1
   5   6  -2 8864.63 1848.23   1
  -5  -6   3 2023.95  337.84   1
   5   6  -3 3014.83  541.26   1
   5   6  -3 2355.02  337.78   1
  -5  -6   4  504.02   87.42   1
   5   6  -4  501.28  171.09   1
   5   6  -4  435.89   89.50   1
  -5  -6   5  875.77  140.75   1
  -5  -6   5  891.49  144.86   1
   5   6  -5  923.30  262.21   1
   5   6  -5 1222.88  274.35   1
   5   6  -5  709.09  138.34   1
  -5  -6   6   53.52   52.45   1
  -5  -6   6  103.54   56.02   1
   5   6  -6  276.16  200.20   1
   5   6  -6  192.53  252.57   1
   5   6  -6   41.12   49.59   1
  -5  -6   7 3315.67  409.82   1
  -5  -6   7 3895.45  414.34   1
   5   6  -7 3557.31  673.19   1
   5   6  -7 1162.60  408.01   1
  -5  -6   8 2122.13  342.03   1
  -5  -6   8 2384.11  347.42   1
  -5  -6   9    4.04   68.70   1
  -5  -5   1 2051.45  305.87   1
  -5  -5   1 2232.71  306.54   1
   5   5  -1 2437.81  471.56   1
   5   5  -1 1641.96  474.02   1
   5   5  -1 1812.02  308.32   1
  -5  -5   214367.58 2091.45   1
   5   5  -214879.44 3255.78   1
   5   5  -214461.57 3256.28   1
   5   5  -214994.05 2094.00   1
  -5  -5   310530.36 1468.01   1
   5   5  -310791.56 2280.09   1
   5   5  -310997.52 2282.20   1
   5   5  -3 9713.74 1468.99   1
  -5  -5   4   50.42   44.83   1
   5   5  -4  -13.69  161.96   1
   5   5  -4  177.06  215.18   1
  -5  -5   5 2033.24  310.92   1
  -5  -5   5 2076.78  313.65   1
   5   5  -5 2138.18  487.58   1
   5   5  -5 2426.24  509.27   1
  -5  -5   6   76.50   50.00   1
  -5  -5   6   78.79   66.77   1
   5   5  -6  -88.39  156.38   1
   5   5  -6   90.07  191.46   1
   5   5  -6   83.39   56.94   1
  -5  -5   7 2617.11  221.39   1
   5   5  -7 1653.83  359.43   1
   5   5  -7 1997.20  379.44   1
  -5  -5   8 1885.43  205.66   1
  -5  -5   8 2084.04  212.01   1
  -5  -5   9  331.98   68.33   1
   5   5  -9   26.34   80.38   1
  -5  -5  10  114.72   74.34   1
   5   5 -10    3.59   57.53   1
  -5  -4   1 5363.95  839.68   1
  -5  -4   1 6116.31  838.90   1
   5   4  -1 6245.21 1299.08   1
   5   4  -1 4781.59 1300.73   1
   5   4  -1 6079.34  842.63   1
  -5  -4   2  172.75   51.37   1
  -5  -4   2  204.37   55.60   1
   5   4  -2  176.01  101.78   1
   5   4  -2  135.08  138.61   1
   5   4  -2  163.76   47.41   1
  -5  -4   3  578.09   92.45   1
   5   4  -3  512.39  160.20   1
   5   4  -3  557.31  176.13   1
   5   4  -3  427.56   92.15   1
  -5  -4   4  568.90   94.20   1
  -5  -4   4  477.33   93.26   1
   5   4  -4  562.86  196.96   1
   5   4  -4  598.03  231.16   1
   5   4  -4  470.60   94.32   1
  -5  -4   5 3025.62  450.87   1
  -5  -4   5 3341.56  453.73   1
   5   4  -5 2747.25  694.67   1
   5   4  -5 3748.21  709.13   1
   5   4  -5 2843.59  452.13   1
  -5  -4   6 3016.27  444.41   1
  -5  -4   6 3043.04  445.34   1
   5   4  -6 2589.99  686.47   1
   5   4  -6 3208.86  701.38   1
  -5  -4   7  875.68  123.92   1
  -5  -4   7  795.54  123.78   1
   5   4  -7  500.03  210.64   1
   5   4  -7  369.64  126.42   1
  -5  -4   8  120.91   52.42   1
   5   4  -8    4.80   68.39   1
  -5  -4   9  257.53   76.24   1
  -5  -4   9  346.11   90.90   1
   5   4  -9   35.76   81.38   1
  -5  -4  10  106.59   72.87   1
  -5  -4  10  256.83   86.40   1
   5   4 -10   -5.89   81.34   1
  -5  -3   1 1734.54  267.67   1
  -5  -3   1 1804.32  267.78   1
   5   3  -1 1721.82  422.92   1
   5   3  -1 1847.72  270.78   1
  -5  -3   2 1108.82  176.50   1
  -5  -3   2 1173.61  176.65   1
   5   3  -2 1233.26  306.28   1
   5   3  -2 1117.26  178.98   1
  -5  -3   3 1496.33  240.51   1
  -5  -3   3 1658.44  242.00   1
   5   3  -3 1622.85  394.91   1
   5   3  -3 1637.71  242.42   1
  -5  -3   4  835.34  154.31   1
  -5  -3   4 1124.76  157.58   1
   5   3  -4 1283.24  280.66   1
   5   3  -4 1221.70  296.39   1
   5   3  -4  885.78  157.08   1
  -5  -3   5  392.76   85.06   1
   5   3  -5  417.76  172.84   1
   5   3  -5  371.31   92.54   1
  -5  -3   6   65.58   61.03   1
   5   3  -6  127.88  146.30   1
   5   3  -6  -88.48  236.08   1
   5   3  -6   -3.85   69.18   1
  -5  -3   7  195.33   64.64   1
  -5  -3   7  110.73   57.92   1
   5   3  -7  165.54  144.21   1
   5   3  -7   23.46  217.25   1
   5   3  -7   89.42   74.85   1
  -5  -3   8 1397.70  202.20   1
  -5  -3   8 1281.42  199.79   1
   5   3  -8 1077.44  201.88   1
  -5  -3   9 1126.26  176.56   1
  -5  -3   9 1677.08  182.07   1
   5   3  -9  404.38  173.25   1
  -5  -3  10   29.68   55.34   1
  -5  -3  10  -19.75   65.01   1
   5   3 -10    2.27   78.25   1
  -5  -3  11   48.12   75.40   1
  -5  -3  11  244.22   93.31   1
   5   3 -11   15.60   70.74   1
  -5  -2   1 8688.74 1237.30   1
  -5  -2   1 8119.28 1236.01   1
   5   2  -1 8294.37 1920.10   1
   5   2  -1 9263.60 1239.18   1
  -5  -2   2 1684.15  274.48   1
  -5  -2   2 1960.17  275.75   1
   5   2  -2 2032.15  452.73   1
   5   2  -2 1833.22  277.38   1
  -5  -2   3  257.16   62.07   1
  -5  -2   3  298.56   62.55   1
   5   2  -3  428.70  199.72   1
   5   2  -3  358.11   66.15   1
  -5  -2   4  806.92  144.07   1
  -5  -2   4 1007.04  147.08   1
   5   2  -4 1050.17  291.20   1
  -5  -2   5 2564.43  398.52   1
  -5  -2   5 2795.91  399.19   1
   5   2  -5 3508.82  658.18   1
   5   2  -5 2687.44  400.94   1
  -5  -2   610790.25 1470.82   1
   5   2  -610659.59 2285.72   1
   5   2  -6 9343.31 2284.29   1
   5   2  -6 9678.52 1471.43   1
  -5  -2   7 3939.72  584.90   1
  -5  -2   7 4277.48  585.61   1
   5   2  -7 3068.61  923.55   1
   5   2  -7 3839.04  585.96   1
  -5  -2   8  -19.34   49.82   1
  -5  -2   8   24.43   56.67   1
   5   2  -8   24.72   73.06   1
  -5  -2   9  773.85  135.15   1
  -5  -2   9  935.75  135.82   1
   5   2  -9  611.21  139.60   1
  -5  -2  10   72.10   58.08   1
  -5  -2  10  149.73   69.60   1
   5   2 -10    7.64   81.51   1
  -5  -2  11  757.41  155.91   1
   5   2 -11  123.24  154.06   1
  -5  -1   121212.38 4420.70   1
  -5  -1   120049.31 2836.10   1
  -5  -1   119617.74 2835.73   1
   5   1  -120779.76 4421.12   1
   5   1  -119682.03 2838.59   1
  -5  -1   2 6886.39 1590.83   1
  -5  -1   2 7157.69 1025.10   1
  -5  -1   2 7005.60 1025.65   1
   5   1  -2 6844.41 1589.20   1
   5   1  -2 7323.91 1027.34   1
  -5  -1   3  921.26  261.69   1
  -5  -1   3 1066.95  163.18   1
  -5  -1   3 1049.55  162.58   1
   5   1  -3  886.51  280.40   1
   5   1  -3  999.53  165.45   1
  -5  -1   4 2475.62  399.29   1
  -5  -1   4 2789.92  400.21   1
   5   1  -4 3126.29  651.43   1
   5   1  -4 2874.43  402.15   1
  -5  -1   5   53.35   38.92   1
  -5  -1   5   84.51   46.63   1
   5   1  -5   34.16  237.12   1
   5   1  -5   68.75   41.72   1
  -5  -1   6 4105.04  625.96   1
  -5  -1   6 4595.83  626.72   1
   5   1  -6 4182.55  991.18   1
   5   1  -6 4210.86  627.54   1
  -5  -1   7 6138.45  912.98   1
  -5  -1   7 6538.50  913.51   1
   5   1  -7 5350.36 1422.73   1
   5   1  -7 6372.34  914.22   1
  -5  -1   8   13.73   52.98   1
  -5  -1   8   79.89   68.67   1
   5   1  -8   -7.13   62.04   1
  -5  -1   9 1379.34  229.67   1
  -5  -1   9 1701.62  235.95   1
   5   1  -9 1345.83  233.63   1
  -5  -1  10  261.85   74.56   1
  -5  -1  10  306.90   73.14   1
   5   1 -10  214.81   83.09   1
  -5  -1  11   48.55   69.80   1
  -5  -1  11  134.50   75.26   1
   5   1 -11  114.01   63.18   1
  -5   0   1 1246.48  371.97   1
  -5   0   1 1558.97  237.47   1
  -5   0   1 1665.26  238.78   1
   5   0  -1 1447.23  393.16   1
   5   0  -1 1508.24  241.13   1
  -5   0   2  895.01  243.70   1
  -5   0   2  842.48  148.13   1
  -5   0   2  957.68  151.29   1
   5   0  -2  875.64  271.38   1
   5   0  -2  974.60  154.46   1
  -5   0   3 2077.59  575.61   1
  -5   0   3 2457.88  374.77   1
  -5   0   3 2457.21  375.28   1
   5   0  -3 2539.07  602.93   1
   5   0  -3 2786.63  377.43   1
  -5   0   415214.75 2971.90   1
  -5   0   413589.33 1909.98   1
  -5   0   413062.11 1909.14   1
   5   0  -415853.76 2982.91   1
   5   0  -412978.95 1911.43   1
  -5   0   5 3873.21  576.42   1
  -5   0   5 3884.64  577.71   1
   5   0  -5 4357.10  908.81   1
   5   0  -5 4116.99  578.70   1
  -5   0   6   93.75   41.96   1
  -5   0   6  118.87   49.51   1
   5   0  -6  397.68  361.11   1
   5   0  -6   93.98   49.50   1
  -5   0   7   73.28   39.04   1
  -5   0   7   34.05   44.74   1
   5   0  -7  124.85  298.63   1
   5   0  -7   33.37   44.08   1
  -5   0   8  471.75   93.42   1
  -5   0   8  563.54   95.67   1
   5   0  -8  346.43  251.17   1
   5   0  -8  517.62  103.77   1
  -5   0   9 1730.11  254.75   1
  -5   0   9 1828.87  256.19   1
   5   0  -9 1356.00  254.40   1
  -5   0  10 1011.14  167.52   1
  -5   0  10 1032.71  168.49   1
   5   0 -10  957.34  176.74   1
  -5   0  11  196.55   71.23   1
  -5   0  11  265.35   77.00   1
   5   0 -11  199.27   73.29   1
  -5   1   1  612.41  241.18   1
  -5   1   1  513.04   92.11   1
  -5   1   1  475.30   95.17   1
   5  -1  -1  254.84  275.01   1
   5  -1  -1  542.59   97.16   1
  -5   1   2  -84.40  206.24   1
  -5   1   2   34.65   38.76   1
  -5   1   2   43.17   52.45   1
   5  -1  -2  264.02  263.20   1
   5  -1  -2   55.16   51.32   1
  -5   1   3  451.37  185.49   1
  -5   1   3  326.85   74.50   1
  -5   1   3  366.25   74.55   1
   5  -1  -3  323.19  290.07   1
   5  -1  -3  344.96   81.91   1
  -5   1   4  469.38  251.04   1
  -5   1   4  422.24   82.10   1
  -5   1   4  420.02   82.61   1
   5  -1  -4  251.70  301.13   1
   5  -1  -4  428.26   86.27   1
  -5   1   5  475.12  182.74   1
  -5   1   5  347.92   72.82   1
  -5   1   5  339.11   75.34   1
   5  -1  -5  674.50  370.89   1
   5  -1  -5  353.10   78.33   1
  -5   1   6  218.15  166.22   1
  -5   1   6  185.61   57.15   1
  -5   1   6  261.61   57.03   1
   5  -1  -6  -65.56  304.12   1
   5  -1  -6  235.17   60.93   1
  -5   1   7  708.22  253.95   1
  -5   1   7  617.27  107.23   1
  -5   1   7  652.17  109.71   1
   5  -1  -7  599.48  287.24   1
   5  -1  -7  553.55  110.27   1
  -5   1   8  667.81  113.44   1
  -5   1   8  708.33  114.06   1
   5  -1  -8  383.76  275.24   1
   5  -1  -8  606.56  116.27   1
  -5   1   9   42.06   40.23   1
  -5   1   9   84.18   41.67   1
   5  -1  -9 -130.02  208.39   1
   5  -1  -9   16.62   47.10   1
  -5   1  10  243.55   87.19   1
  -5   1  10  396.56   91.52   1
   5  -1 -10  497.24  100.12   1
  -5   1  11    6.88   60.61   1
  -5   1  11   66.29   63.91   1
   5  -1 -11  125.86   80.61   1
  -5   2   1 1456.59  376.47   1
  -5   2   1 1383.88  219.58   1
  -5   2   1 1504.80  221.30   1
   5  -2  -1 1467.03  415.98   1
   5  -2  -1 1380.56  223.41   1
  -5   2   2  125.71  201.48   1
  -5   2   2  164.84   51.19   1
  -5   2   2  185.61   61.85   1
   5  -2  -2  167.35  256.69   1
   5  -2  -2   95.01   58.72   1
  -5   2   3   83.63  232.68   1
  -5   2   3   35.13   45.78   1
  -5   2   3   45.75   46.38   1
   5  -2  -3  -38.00  373.76   1
   5  -2  -3   45.82   56.77   1
  -5   2   4 5699.15 1101.40   1
  -5   2   4 4813.27  694.75   1
  -5   2   4 4382.02  693.62   1
   5  -2  -4 6038.96 1108.11   1
   5  -2  -4 5086.76  697.00   1
  -5   2   5 7893.87 1572.46   1
  -5   2   5 6886.16  997.44   1
  -5   2   5 6960.06  997.79   1
   5  -2  -5 8793.29 1602.07   1
   5  -2  -5 6653.14  999.48   1
  -5   2   6 4498.64  639.28   1
  -5   2   6 4136.44  638.79   1
   5  -2  -6 5674.65 1040.67   1
   5  -2  -6 4491.84  641.49   1
  -5   2   7    7.77  276.87   1
  -5   2   7   10.75   41.14   1
  -5   2   7   39.92   45.00   1
   5  -2  -7   64.04  281.44   1
   5  -2  -7   13.17   44.10   1
  -5   2   8  695.94  355.05   1
  -5   2   8  360.38   77.57   1
  -5   2   8  412.96   79.81   1
   5  -2  -8  275.72  278.67   1
   5  -2  -8  336.40   81.10   1
  -5   2   9  226.91  277.40   1
  -5   2   9  526.43   98.23   1
  -5   2   9  474.31  100.88   1
   5  -2  -9  246.10  273.66   1
   5  -2  -9  440.49  107.00   1
  -5   2  10 3443.65  519.97   1
  -5   2  10 3630.01  519.68   1
   5  -2 -10 3488.38  523.00   1
  -5   2  11 2551.58  361.55   1
  -5   2  11 2338.17  361.32   1
   5  -2 -11 2263.79  364.70   1
  -5   3   1 1399.78  415.31   1
  -5   3   1 1698.10  244.79   1
  -5   3   1 1696.22  245.71   1
   5  -3  -1 1777.88  502.59   1
   5  -3  -1 1359.91  247.78   1
  -5   3   2 1029.96  323.26   1
  -5   3   2 1006.98  171.42   1
  -5   3   2 1101.63  172.42   1
   5  -3  -2  937.30  460.46   1
   5  -3  -2 1170.35  176.51   1
  -5   3   3 4574.56  954.09   1
  -5   3   3 4173.41  604.48   1
  -5   3   3 4038.47  604.64   1
   5  -3  -3 4181.87  987.04   1
   5  -3  -3 4210.63  607.89   1
  -5   3   4  277.14  281.61   1
  -5   3   4  267.34   67.10   1
  -5   3   4  222.67   63.02   1
   5  -3  -4  179.16  279.54   1
   5  -3  -4  260.04   75.45   1
  -5   3   5 9958.54 1795.42   1
  -5   3   5 7849.11 1143.61   1
  -5   3   5 7898.37 1143.27   1
   5  -3  -5 9967.10 1815.03   1
   5  -3  -5 7752.17 1145.26   1
  -5   3   6 3782.91  782.59   1
  -5   3   6 3066.34  456.42   1
  -5   3   6 3384.83  455.78   1
   5  -3  -6 3172.02  763.81   1
   5  -3  -6 2684.36  458.77   1
  -5   3   7  642.14  369.90   1
  -5   3   7  479.20   93.23   1
  -5   3   7  496.11   94.42   1
   5  -3  -7  485.90  261.83   1
   5  -3  -7  508.54   98.43   1
  -5   3   8 1843.29  494.52   1
  -5   3   8 1772.29  261.47   1
  -5   3   8 1805.32  261.33   1
   5  -3  -8 1284.55  464.42   1
   5  -3  -8 1506.26  263.08   1
  -5   3   9  311.29  429.66   1
  -5   3   9  510.15  102.99   1
  -5   3   9  568.28  100.05   1
   5  -3  -9  317.57  255.72   1
   5  -3  -9  483.30  112.26   1
  -5   3  10  899.23  156.41   1
  -5   3  10  981.28  153.96   1
   5  -3 -10  635.63  338.37   1
   5  -3 -10  855.95  162.59   1
  -5   4   1  876.09  297.64   1
  -5   4   1  787.54  133.21   1
  -5   4   1  836.56  134.83   1
   5  -4  -1  618.09  345.37   1
   5  -4  -1  739.41  138.08   1
  -5   4   2 6779.32 1552.72   1
  -5   4   2 7192.47  993.50   1
  -5   4   2 6898.13  992.67   1
   5  -4  -2 7183.73 1567.79   1
   5  -4  -2 6487.21  996.30   1
  -5   4   3 9613.04 1967.02   1
  -5   4   3 9074.40 1260.81   1
  -5   4   3 8904.29 1259.82   1
   5  -4  -3 9294.08 1980.97   1
   5  -4  -3 8094.55 1262.90   1
  -5   4   4 6246.56 1067.49   1
  -5   4   4 4588.76  664.94   1
  -5   4   4 4364.66  663.46   1
   5  -4  -4 5774.44 1072.82   1
   5  -4  -4 4532.97  667.94   1
  -5   4   5   76.09   49.52   1
  -5   4   5   26.56   47.49   1
   5  -4  -5  184.08  341.46   1
   5  -4  -5   23.29   59.82   1
  -5   4   6   83.81  318.10   1
  -5   4   6  197.12   59.37   1
  -5   4   6  155.69   53.51   1
   5  -4  -6  434.59  341.89   1
   5  -4  -6  135.09   60.45   1
  -5   4   7  647.59  417.13   1
  -5   4   7  699.55  109.42   1
  -5   4   7  571.67  107.78   1
   5  -4  -7  577.82  326.94   1
   5  -4  -7  564.29  113.17   1
  -5   4   8 2186.76  816.50   1
  -5   4   8 3419.84  481.05   1
  -5   4   8 3310.00  480.47   1
   5  -4  -8 3185.81  826.45   1
   5  -4  -8 3145.73  483.66   1
  -5   4   9 1263.64  535.92   1
  -5   4   9 1685.75  249.96   1
  -5   4   9 1628.59  245.02   1
   5  -4  -9 1035.64  436.84   1
   5  -4  -9 1535.13  250.34   1
  -5   4  10  198.92  531.63   1
  -5   4  10  305.66   80.87   1
  -5   4  10  158.66   66.59   1
   5  -4 -10  179.47   97.29   1
  -5   5   1  489.35  308.00   1
  -5   5   1  751.15  123.25   1
  -5   5   1  743.41  123.03   1
   5  -5  -1  741.29  362.69   1
   5  -5  -1  651.90  128.11   1
  -5   5   2  350.32  272.88   1
  -5   5   2  144.80   55.44   1
  -5   5   2  180.93   57.86   1
   5  -5  -2  371.24  373.49   1
   5  -5  -2  125.56   61.05   1
  -5   5   3 1913.00  484.72   1
  -5   5   3 1581.08  238.86   1
  -5   5   3 1596.49  238.90   1
   5  -5  -3 1481.43  441.12   1
   5  -5  -3 1426.35  242.75   1
  -5   5   4  508.10  340.83   1
  -5   5   4  420.20   77.75   1
  -5   5   4  319.32   78.08   1
   5  -5  -4  409.48  313.50   1
   5  -5  -4  352.86   84.29   1
  -5   5   5  349.79  329.08   1
  -5   5   5   85.61   51.05   1
  -5   5   5   29.88   51.52   1
   5  -5  -5  372.48  292.39   1
   5  -5  -5  160.65   78.44   1
  -5   5   6  179.49  412.97   1
  -5   5   6   29.74   50.10   1
  -5   5   6   39.99   57.44   1
   5  -5  -6   13.61  317.83   1
   5  -5  -6   69.36   63.93   1
  -5   5   7  -89.82  363.06   1
  -5   5   7   69.80   50.76   1
  -5   5   7   27.89   58.26   1
   5  -5  -7  116.26  262.47   1
   5  -5  -7   71.23   65.10   1
  -5   5   8  167.03  459.37   1
  -5   5   8  -26.47   51.00   1
  -5   5   8   -5.95   61.60   1
   5  -5  -8    7.45   63.00   1
  -5   5   9  -92.64  470.78   1
  -5   5   9  102.30   56.93   1
  -5   5   9   64.49   53.81   1
   5  -5  -9   16.71  291.83   1
   5  -5  -9   39.63   66.85   1
  -5   6   1  217.70  298.14   1
  -5   6   1  461.04   90.22   1
  -5   6   1  498.18   91.73   1
   5  -6  -1  559.69  301.90   1
   5  -6  -1  442.12  100.34   1
  -5   6   2  594.03  331.91   1
  -5   6   2  779.70  127.52   1
  -5   6   2  741.34  127.81   1
   5  -6  -2  650.23  388.07   1
   5  -6  -2  698.97  132.82   1
  -5   6   3 2036.96  583.32   1
  -5   6   3 2470.85  339.34   1
  -5   6   3 2196.94  339.17   1
   5  -6  -3 2439.22  619.49   1
   5  -6  -3 2083.67  342.76   1
  -5   6   4 3784.25  905.68   1
  -5   6   4 3693.34  522.20   1
  -5   6   4 3420.38  520.42   1
   5  -6  -4 3836.06  852.65   1
   5  -6  -4 3501.43  525.68   1
  -5   6   5 1210.72  511.68   1
  -5   6   5 1147.90  175.96   1
  -5   6   5 1098.76  175.01   1
   5  -6  -5 1026.79  369.58   1
   5  -6  -5  931.43  180.06   1
  -5   6   6 -111.61  377.29   1
  -5   6   6  -53.81   50.74   1
  -5   6   6   -9.45   55.10   1
   5  -6  -6 -189.99  272.21   1
   5  -6  -6  -28.19   63.58   1
  -5   6   7  -73.09  392.22   1
  -5   6   7   13.64   47.61   1
  -5   6   7  -42.56   71.17   1
   5  -6  -7 -100.91  346.42   1
   5  -6  -7   20.57   63.08   1
  -5   6   8  709.91  461.13   1
  -5   6   8  694.44  122.55   1
  -5   6   8  597.64  134.02   1
   5  -6  -8  477.94  428.85   1
   5  -6  -8  784.33  130.81   1
  -5   7   1  825.51  442.22   1
  -5   7   1  990.00  163.50   1
  -5   7   1 1040.16  164.44   1
   5  -7  -1  487.71  465.07   1
   5  -7  -1  910.90  172.67   1
  -5   7   2  674.49  539.23   1
  -5   7   2 1184.52  180.05   1
  -5   7   2 1058.84  178.21   1
   5  -7  -2 1106.87  412.73   1
   5  -7  -2 1058.37  186.99   1
  -5   7   3  692.01  412.05   1
  -5   7   3  357.44   90.53   1
  -5   7   3  388.63   86.45   1
   5  -7  -3  687.71  324.64   1
   5  -7  -3  346.71   96.96   1
  -5   7   4 1886.63  593.33   1
  -5   7   4 2233.62  318.53   1
  -5   7   4 2023.06  315.66   1
   5  -7  -4 2321.52  564.07   1
   5  -7  -4 2000.05  322.22   1
  -5   7   5 1276.44  421.18   1
  -5   7   5  973.92  153.08   1
  -5   7   5  814.46  152.94   1
   5  -7  -5  953.73  371.67   1
   5  -7  -5  857.47  158.81   1
  -5   7   6  156.45  391.26   1
  -5   7   6  397.85   82.92   1
  -5   7   6  317.47   82.41   1
   5  -7  -6  203.78  342.35   1
   5  -7  -6  293.59   89.44   1
  -5   8   1 1976.67  718.19   1
  -5   8   1 2531.62  385.09   1
  -5   8   1 2578.11  386.38   1
   5  -8  -1 2746.90  665.11   1
   5  -8  -1 2684.48  393.81   1
  -5   8   2 2378.81 1072.83   1
  -5   8   2 4781.52  649.72   1
  -5   8   2 4161.04  647.15   1
   5  -8  -2 4287.39 1047.85   1
   5  -8  -2 4647.52  655.10   1
  -5   8   3 1049.81  498.34   1
  -5   8   3 1084.02  175.75   1
  -5   8   3  891.41  175.38   1
   5  -8  -3 1055.74  392.89   1
   5  -8  -3  922.96  174.34   1
  -4 -12   1  746.24  408.10   1
   4  12  -1 1091.97  438.23   1
   4  12  -2  354.90  459.76   1
  -4 -11   1 5570.89 1384.22   1
   4  11  -1 6873.31 1409.31   1
   4  11  -2  859.38  427.73   1
   4  11  -3  505.38  388.36   1
   4  11  -4   44.22  467.13   1
   4  11  -5 2389.20  806.73   1
  -4 -10   118367.55 4474.60   1
   4  10  -122419.68 4476.90   1
   4  10  -211378.80 2559.78   1
   4  10  -3 1621.88  470.22   1
   4  10  -4 2770.20  755.21   1
   4  10  -5 4612.07 1174.24   1
   4  10  -6 7432.24 1779.43   1
   4   9  -110254.60 2287.88   1
   4   9  -2 9618.29 2152.23   1
   4   9  -3 6298.33 1427.65   1
   4   9  -4 5537.48 1281.11   1
   4   9  -5 2663.69  678.82   1
   4   9  -6  912.23  524.14   1
   4   9  -7 1003.83  772.36   1
   4   8  -1    8.40  184.20   1
   4   8  -2  480.98  198.72   1
   4   8  -4 5275.98 1198.13   1
   4   8  -5 3340.12  782.19   1
   4   8  -6  208.38  454.45   1
   4   8  -8 -372.26  513.29   1
   4   8  -8  249.28  343.26   1
  -4  -8   9  385.15  103.74   1
   4   7  -1  250.90  166.02   1
   4   7  -2 1186.34  293.82   1
   4   7  -3 3473.45  808.92   1
   4   7  -417481.19 3887.57   1
   4   7  -515574.15 3467.98   1
  -4  -7   7   68.79   48.20   1
  -4  -7   7  111.71   58.19   1
   4   7  -7   78.55  307.61   1
   4   7  -7  178.36  202.89   1
   4   7  -7    7.15   52.57   1
  -4  -7   8   78.62   60.50   1
  -4  -7   8  189.11   66.41   1
   4   7  -8   36.25  351.23   1
   4   7  -8  371.53  273.28   1
   4   7  -8   25.84   60.51   1
  -4  -7   9 2227.34  341.67   1
   4   6  -117285.08 3839.29   1
   4   6  -2 2245.06  505.57   1
   4   6  -3 2642.90  591.71   1
  -4  -6   415964.19 2366.96   1
   4   6  -420971.37 3692.16   1
  -4  -6   520890.90 3189.45   1
  -4  -6   523993.28 3193.34   1
   4   6  -525919.89 4977.56   1
  -4  -6   6 9560.20 1031.91   1
   4   6  -612854.66 1614.43   1
   4   6  -615148.71 1610.86   1
  -4  -6   7 4730.76  355.70   1
   4   6  -7 4680.09  588.26   1
   4   6  -7 4712.96  558.92   1
  -4  -6   8 1928.11  161.29   1
   4   6  -8   46.97  152.63   1
  -4  -6   9 2969.97  225.85   1
   4   6  -9  -14.62  210.79   1
  -4  -6  10 3233.81  246.43   1
   4   6 -10  -17.44  236.16   1
  -4  -5   1 7978.67 1173.63   1
   4   5  -1 9165.33 1820.46   1
  -4  -5   2 3203.10  454.26   1
  -4  -5   2 3115.18  454.66   1
   4   5  -2 2675.32  696.11   1
  -4  -5   3 5333.66  729.04   1
  -4  -5   3 4776.41  730.06   1
   4   5  -3 5558.92 1126.51   1
   4   5  -3 4912.71  729.63   1
  -4  -5   4 4051.38  588.52   1
  -4  -5   4 3814.44  592.75   1
   4   5  -4 3810.07  907.86   1
   4   5  -4 4855.11  915.08   1
   4   5  -4 4142.16  589.45   1
  -4  -5   5 5802.18  837.58   1
   4   5  -5 6538.71 1297.65   1
   4   5  -5 7333.98 1299.31   1
   4   5  -5 5505.83  838.56   1
  -4  -5   6 3135.99  482.05   1
   4   5  -6 3923.53  741.69   1
  -4  -5   7 2410.86  191.65   1
   4   5  -7 2889.20  310.88   1
  -4  -5   8 3370.19  498.26   1
  -4  -5   9 3110.49  243.27   1
   4   5  -9   59.57  225.79   1
   4   5 -10  -18.32   76.99   1
  -4  -5  11   64.93   87.43   1
   4   5 -11  -12.24   81.62   1
  -4  -4   1  443.90   75.76   1
   4   4  -1  525.67  160.49   1
   4   4  -1  404.77   78.40   1
  -4  -4   2 3941.27  572.62   1
  -4  -4   2 4030.79  572.67   1
   4   4  -2 5451.54  882.71   1
   4   4  -2 4434.54  884.54   1
   4   4  -2 3555.61  573.87   1
  -4  -4   3 5071.64  747.91   1
  -4  -4   3 5105.22  749.08   1
   4   4  -3 6321.03 1155.98   1
   4   4  -3 6178.11 1156.54   1
   4   4  -3 5087.07  749.12   1
  -4  -4   4 2319.15  353.47   1
  -4  -4   4 2544.01  356.45   1
   4   4  -4 2459.08  542.74   1
   4   4  -4 2902.25  545.37   1
   4   4  -4 2274.20  354.87   1
  -4  -4   5  537.34  103.87   1
  -4  -4   5  627.59  105.65   1
   4   4  -5  636.92  185.96   1
   4   4  -5  742.07  204.55   1
   4   4  -5  647.23  108.02   1
  -4  -4   6 1328.84  203.54   1
   4   4  -6 1414.87  307.28   1
   4   4  -6 1405.28  320.47   1
   4   4  -6 1194.66  200.45   1
  -4  -4   7 1335.36  197.20   1
   4   4  -7 1142.81  197.04   1
  -4  -4   8 4733.93  312.76   1
   4   4  -8   75.10  296.80   1
  -4  -4   9 3262.94  228.91   1
   4   4  -9   10.51  219.37   1
  -4  -4  10   39.33   65.18   1
   4   4 -10   35.54   80.00   1
  -4  -4  11  433.64   83.62   1
   4   4 -11   -9.92   93.89   1
  -4  -3   1  242.10   51.40   1
  -4  -3   1  252.11   51.99   1
   4   3  -1  335.62  132.65   1
   4   3  -1  231.24   53.69   1
  -4  -3   2 7507.93 1123.36   1
  -4  -3   2 7987.49 1123.86   1
   4   3  -2 8553.46 1740.85   1
   4   3  -2 7932.85 1124.54   1
  -4  -3   326032.29 3778.59   1
  -4  -3   328173.66 3779.85   1
   4   3  -326906.88 5893.77   1
   4   3  -332145.04 5894.92   1
   4   3  -324792.42 3779.16   1
  -4  -3   425497.34 3571.22   1
   4   3  -425135.47 5567.60   1
   4   3  -430028.75 5568.96   1
   4   3  -424045.59 3571.19   1
  -4  -3   5 2454.08  384.20   1
  -4  -3   5 2860.05  386.88   1
   4   3  -5 2799.18  588.98   1
   4   3  -5 3109.75  594.60   1
   4   3  -5 2480.50  385.55   1
  -4  -3   6  155.17   57.91   1
   4   3  -6  147.69  111.59   1
   4   3  -6  116.84   44.74   1
  -4  -3   7  394.56   85.59   1
   4   3  -7  393.08   87.96   1
  -4  -3   812056.07 1543.32   1
   4   3  -8 9599.88 1541.99   1
  -4  -3   912808.70 1838.08   1
  -4  -3  10 4082.13  328.62   1
   4   3 -10  627.58  315.65   1
  -4  -3  11  172.91   65.47   1
   4   3 -11   83.73   92.11   1
  -4  -2   1 1091.98  154.77   1
  -4  -2   1  867.64  153.46   1
   4   2  -1 1101.62  253.36   1
   4   2  -1 1009.69  156.78   1
  -4  -2   213714.87 2009.66   1
  -4  -2   214520.78 2009.07   1
   4   2  -213323.33 3125.42   1
   4   2  -214031.36 2009.98   1
  -4  -2   345540.07 6661.44   1
  -4  -2   350979.70 6662.58   1
   4   2  -358164.7110406.24   1
   4   2  -343198.79 6661.60   1
  -4  -2   445740.85 6649.27   1
  -4  -2   447541.93 6649.53   1
   4   2  -456397.4310388.12   1
   4   2  -445918.76 6650.48   1
  -4  -2   513989.40 2052.26   1
  -4  -2   514382.36 2053.33   1
   4   2  -518241.13 3194.10   1
   4   2  -517053.19 3194.71   1
   4   2  -513867.89 2053.52   1
  -4  -2   6 1952.51  309.99   1
  -4  -2   6 2158.67  311.39   1
   4   2  -6 2012.30  482.43   1
   4   2  -6 2160.60  312.60   1
  -4  -2   7 3476.72  511.03   1
   4   2  -7 3486.66  510.64   1
  -4  -2   812419.61 1659.34   1
   4   2  -810745.69 1659.40   1
  -4  -2   910926.46 1395.11   1
   4   2  -9 8499.19 1395.25   1
  -4  -2  10 7847.48  775.26   1
   4   2 -10 3147.69  768.96   1
  -4  -2  11 2067.16  207.30   1
   4   2 -11  583.58  197.83   1
  -4  -2  12 1390.67  190.05   1
   4   2 -12  826.91  199.67   1
  -4  -1   1 2282.46  536.38   1
  -4  -1   1 2318.31  349.97   1
  -4  -1   1 2347.99  349.18   1
   4   1  -1 2130.67  544.35   1
   4   1  -1 2498.68  351.70   1
  -4  -1   2  963.49  202.30   1
  -4  -1   2  703.36  117.84   1
  -4  -1   2  750.52  118.65   1
   4   1  -2  678.05  121.01   1
  -4  -1   3 7649.16 1096.18   1
  -4  -1   3 7846.77 1096.41   1
   4   1  -3 7090.64 1698.26   1
   4   1  -3 7456.85 1097.06   1
  -4  -1   410236.20 1525.52   1
  -4  -1   411140.59 1526.75   1
   4   1  -411943.08 2370.31   1
   4   1  -410521.24 1526.96   1
  -4  -1   5 6165.19  907.09   1
  -4  -1   5 6845.87  907.79   1
   4   1  -5 5839.44  908.41   1
  -4  -1   6 3130.11  475.10   1
  -4  -1   6 3337.89  475.64   1
   4   1  -6 3395.04  736.96   1
   4   1  -6 3271.41  477.24   1
  -4  -1   7 2614.28  380.84   1
   4   1  -7 2016.99  583.73   1
   4   1  -7 2564.50  383.64   1
  -4  -1   8 1753.29  256.36   1
   4   1  -8 1604.85  257.56   1
  -4  -1   9 1058.27  157.79   1
   4   1  -9  887.41  160.90   1
  -4  -1  10  521.32   92.29   1
   4   1 -10  346.05  112.67   1
   4   1 -11  428.81  103.21   1
  -4  -1  12 1777.00  224.22   1
   4   1 -12  986.07  230.15   1
  -4   0   1  526.99  184.86   1
  -4   0   1  665.04  109.05   1
   4   0  -1  805.22  214.65   1
   4   0  -1  662.89  110.51   1
   4   0  -1  650.82  112.81   1
  -4   0   2 4522.56  970.89   1
  -4   0   2 4525.94  630.20   1
  -4   0   2 4319.34  629.94   1
   4   0  -2 4534.47  974.51   1
   4   0  -2 4124.35  631.50   1
  -4   0   3 1889.32  449.95   1
  -4   0   3 1901.60  291.40   1
  -4   0   3 2089.67  291.70   1
   4   0  -3 2249.30  462.30   1
   4   0  -3 1835.75  292.85   1
  -4   0   4  156.80  112.30   1
  -4   0   4  166.68   50.37   1
  -4   0   4  172.17   46.91   1
   4   0  -4  151.17  165.42   1
   4   0  -4  160.64   48.37   1
  -4   0   5  314.01  137.74   1
  -4   0   5  170.97   55.79   1
  -4   0   5  175.31   58.52   1
   4   0  -5  350.87  205.52   1
   4   0  -5  250.95   61.25   1
  -4   0   6 1101.36  269.01   1
  -4   0   6  967.12  166.28   1
  -4   0   6 1059.96  165.71   1
   4   0  -6  919.76  306.97   1
   4   0  -6 1105.86  168.34   1
  -4   0   7 4903.96  739.23   1
  -4   0   7 5172.21  740.27   1
   4   0  -7 4746.26 1141.46   1
   4   0  -7 5300.47  742.03   1
  -4   0   8 3460.43  539.21   1
  -4   0   8 3723.62  539.78   1
   4   0  -8 3888.38  541.09   1
  -4   0   9   85.97   53.06   1
  -4   0  10  681.35  112.66   1
   4   0 -10  598.72  118.40   1
  -4   0  11   65.99   53.39   1
   4   0 -11   31.03   72.31   1
  -4   0  12 2152.38  257.14   1
   4   0 -12 1046.19  255.50   1
  -4   1   122535.19 4321.46   1
  -4   1   120331.18 2772.85   1
  -4   1   119665.94 2772.23   1
   4  -1  -115002.30 4319.71   1
   4  -1  -119120.52 2771.79   1
   4  -1  -118577.12 2774.04   1
  -4   1   236194.36 7874.35   1
  -4   1   235542.94 5043.72   1
  -4   1   235803.41 5043.76   1
   4  -1  -234961.59 7874.25   1
   4  -1  -234924.60 5044.71   1
  -4   1   323185.58 4799.30   1
  -4   1   320926.70 3078.93   1
  -4   1   322136.64 3078.75   1
   4  -1  -319687.72 4797.27   1
   4  -1  -321667.86 3080.86   1
  -4   1   4 2111.58  547.46   1
  -4   1   4 2299.89  355.74   1
  -4   1   4 2465.47  355.79   1
   4  -1  -4 2270.49  557.34   1
   4  -1  -4 2500.18  357.33   1
  -4   1   5  202.49  168.77   1
  -4   1   5  257.39   58.89   1
  -4   1   5  295.93   67.54   1
   4  -1  -5  178.69  179.38   1
   4  -1  -5  263.42   62.71   1
  -4   1   6 5887.57  865.41   1
  -4   1   6 5787.38  865.61   1
   4  -1  -6 6568.36 1351.63   1
   4  -1  -6 6351.42  867.54   1
  -4   1   724687.75 5101.66   1
  -4   1   722589.44 3272.51   1
  -4   1   722857.30 3272.60   1
   4  -1  -724774.05 5103.11   1
   4  -1  -723094.78 3274.09   1
  -4   1   815997.76 3549.83   1
  -4   1   815822.36 2281.72   1
  -4   1   815861.61 2282.10   1
   4  -1  -815382.27 3549.22   1
   4  -1  -816363.52 2283.48   1
  -4   1   9 3685.22  537.88   1
  -4   1   9 3579.04  537.69   1
   4  -1  -9 3752.82  539.79   1
  -4   1  10  117.82   52.75   1
  -4   1  10  125.53   55.95   1
   4  -1 -10  127.42   60.34   1
  -4   1  11  433.97  102.87   1
  -4   1  11  521.02   95.45   1
   4  -1 -11  394.93  101.87   1
  -4   1  12 3225.18  546.18   1
  -4   1  12 4938.00  550.06   1
   4  -1 -12 2864.63  550.80   1
  -4   2   111990.28 3021.09   1
  -4   2   113773.10 1942.81   1
  -4   2   114306.74 1942.41   1
   4  -2  -1 9362.76 3018.30   1
   4  -2  -113514.34 1942.11   1
   4  -2  -113214.34 1944.27   1
  -4   2   254436.1312732.41   1
  -4   2   261770.62 8147.30   1
  -4   2   259440.53 8147.02   1
   4  -2  -246302.4412729.40   1
   4  -2  -251080.34 8147.91   1
  -4   2   347061.6611321.26   1
  -4   2   351570.75 7246.00   1
  -4   2   350641.16 7245.69   1
   4  -2  -352479.6611323.19   1
   4  -2  -351199.44 7247.42   1
  -4   2   413062.04 2703.06   1
  -4   2   412200.73 1738.09   1
  -4   2   411952.64 1737.52   1
   4  -2  -411084.33 2701.45   1
   4  -2  -412297.40 1739.64   1
  -4   2   5 2196.56  548.13   1
  -4   2   5 2272.38  348.47   1
  -4   2   5 2413.62  349.37   1
   4  -2  -5 2125.75  538.15   1
   4  -2  -5 2386.89  350.22   1
  -4   2   6 3624.19  625.69   1
  -4   2   6 2565.67  399.70   1
  -4   2   6 2687.45  399.28   1
   4  -2  -6 3257.56  645.12   1
   4  -2  -6 2704.69  401.23   1
  -4   2   714265.02 2995.14   1
  -4   2   713025.53 1923.77   1
  -4   2   712972.23 1923.17   1
   4  -2  -714436.73 2996.80   1
   4  -2  -714326.16 1925.81   1
  -4   2   821949.32 3072.40   1
  -4   2   821691.18 3072.15   1
   4  -2  -824855.30 4790.74   1
   4  -2  -820554.78 3073.54   1
  -4   2   9 8227.27 1142.31   1
  -4   2   9 7973.88 1142.64   1
   4  -2  -9 5971.65 1766.74   1
   4  -2  -9 7903.99 1143.71   1
  -4   2  10 1460.40  214.99   1
  -4   2  10 1493.50  214.84   1
   4  -2 -10 1154.98  216.97   1
  -4   2  11 1510.51  230.24   1
  -4   2  11 1508.48  228.58   1
   4  -2 -11 1314.58  233.37   1
  -4   2  12 1858.77  274.23   1
  -4   2  12 1990.91  268.17   1
   4  -2 -12 1284.70  272.45   1
  -4   3   1 1008.90  311.87   1
  -4   3   1 1089.49  166.56   1
  -4   3   1 1092.67  168.72   1
   4  -3  -1  887.78  394.61   1
   4  -3  -1  975.01  169.80   1
  -4   3   212130.67 2866.34   1
  -4   3   212890.84 1840.32   1
  -4   3   212326.26 1840.00   1
   4  -3  -213497.32 2871.90   1
   4  -3  -213562.37 1842.14   1
  -4   3   314997.28 3086.70   1
  -4   3   313872.34 1981.34   1
  -4   3   313986.81 1981.02   1
   4  -3  -314365.98 3089.57   1
   4  -3  -313512.99 1982.54   1
  -4   3   4 4807.83  918.91   1
  -4   3   4 4234.78  585.23   1
  -4   3   4 3867.09  584.53   1
   4  -3  -4 5437.33  931.77   1
   4  -3  -4 3761.27  586.75   1
  -4   3   5  284.30  192.88   1
  -4   3   5  206.31   61.69   1
  -4   3   5  201.57   67.63   1
   4  -3  -5  602.97  259.89   1
   4  -3  -5  177.91   65.45   1
  -4   3   6 1561.57  368.02   1
  -4   3   6 1025.14  164.43   1
  -4   3   6 1011.76  162.93   1
   4  -3  -6 1004.46  343.86   1
   4  -3  -6  955.84  167.02   1
  -4   3   7 2449.61  567.00   1
  -4   3   7 2225.90  346.40   1
  -4   3   7 2321.11  346.02   1
   4  -3  -7 2560.40  561.11   1
   4  -3  -7 2404.74  348.21   1
  -4   3   8 2474.57  544.17   1
  -4   3   8 2085.69  330.21   1
  -4   3   8 2140.29  330.52   1
   4  -3  -8 2103.35  543.80   1
   4  -3  -8 2409.84  333.62   1
  -4   3   9 1031.32  309.57   1
  -4   3   9  991.54  155.36   1
  -4   3   9  874.95  157.19   1
   4  -3  -9  854.57  273.63   1
   4  -3  -9 1007.43  159.55   1
  -4   3  10   81.42  222.12   1
  -4   3  10  472.35  101.07   1
  -4   3  10  531.55   98.94   1
   4  -3 -10  349.58  234.06   1
   4  -3 -10  430.86  105.05   1
  -4   3  11  785.44  138.64   1
  -4   3  11  804.72  138.61   1
   4  -3 -11  695.72  142.51   1
  -4   3  12  503.97  115.84   1
  -4   3  12  617.64  110.47   1
   4  -3 -12  588.84  121.02   1
  -4   4   1  762.58  298.30   1
  -4   4   1  903.50  148.18   1
  -4   4   1  969.85  150.08   1
   4  -4  -1  857.63  330.80   1
   4  -4  -1  883.58  152.14   1
  -4   4   2  538.74  249.76   1
  -4   4   2  504.94   89.67   1
  -4   4   2  540.36   92.83   1
   4  -4  -2  572.78  287.32   1
   4  -4  -2  384.88   94.13   1
  -4   4   3  797.11  273.34   1
  -4   4   3  821.29  126.31   1
  -4   4   3  842.76  125.66   1
   4  -4  -3  922.12  313.30   1
   4  -4  -3  498.73  129.06   1
  -4   4   4  644.09  247.45   1
  -4   4   4  542.45   98.16   1
  -4   4   4  532.19   96.65   1
   4  -4  -4  476.69  257.12   1
   4  -4  -4  496.15   99.25   1
  -4   4   5 2383.05  558.55   1
  -4   4   5 2036.95  306.94   1
  -4   4   5 2047.19  307.33   1
   4  -4  -5 2301.50  505.71   1
   4  -4  -5 1986.95  309.37   1
  -4   4   6 3254.27  669.43   1
  -4   4   6 2565.87  387.54   1
  -4   4   6 2656.72  387.57   1
   4  -4  -6 3136.89  643.37   1
   4  -4  -6 2493.09  389.03   1
  -4   4   7 1670.03  442.08   1
  -4   4   7 1564.32  236.58   1
  -4   4   7 1552.20  236.35   1
   4  -4  -7 1952.79  419.97   1
   4  -4  -7 1451.69  237.91   1
  -4   4   8   99.76  338.80   1
  -4   4   8   85.81   44.14   1
  -4   4   8   92.65   51.84   1
   4  -4  -8  116.67   49.71   1
  -4   4   9  361.58  356.13   1
  -4   4   9  264.24   61.81   1
  -4   4   9  253.73   62.89   1
   4  -4  -9  329.45  252.55   1
   4  -4  -9  217.71   65.35   1
  -4   4  10  351.03  393.82   1
  -4   4  10  511.65  106.49   1
  -4   4  10  518.89  112.19   1
   4  -4 -10  494.88  268.57   1
   4  -4 -10  602.11  114.67   1
  -4   4  11 1380.65  600.22   1
  -4   4  11 2144.49  342.15   1
  -4   4  11 2675.81  343.44   1
   4  -4 -11 1879.70  575.95   1
   4  -4 -11 2091.22  345.25   1
  -4   5   113778.54 5235.31   1
  -4   5   124877.06 3355.97   1
  -4   5   123499.72 3355.20   1
   4  -5  -121087.56 5239.73   1
   4  -5  -123621.37 3359.35   1
  -4   5   2 9819.11 2667.38   1
  -4   5   212332.39 1712.18   1
  -4   5   212529.33 1712.12   1
   4  -5  -212085.33 2673.27   1
   4  -5  -211101.95 1714.01   1
  -4   5   3 2256.42  588.47   1
  -4   5   3 2359.93  344.32   1
  -4   5   3 2378.34  343.23   1
   4  -5  -3 1647.76  561.34   1
   4  -5  -3 2202.93  347.19   1
  -4   5   4  542.13  269.87   1
  -4   5   4  584.84   98.23   1
  -4   5   4  411.84   95.01   1
   4  -5  -4  560.22  265.49   1
   4  -5  -4  547.70  103.53   1
  -4   5   5 8666.96 1644.56   1
  -4   5   5 7692.09 1044.29   1
  -4   5   5 6950.32 1043.57   1
   4  -5  -5 8701.66 1635.42   1
   4  -5  -5 6787.10 1044.94   1
  -4   5   619717.93 3287.91   1
  -4   5   614578.88 2100.73   1
  -4   5   614412.81 2100.61   1
   4  -5  -617163.40 3279.96   1
   4  -5  -614253.84 2102.02   1
  -4   5   715932.68 2260.49   1
  -4   5   715993.69 2258.99   1
   4  -5  -720153.28 3539.40   1
   4  -5  -715016.71 2261.36   1
  -4   5   8 3468.56  705.05   1
  -4   5   8 2890.02  409.57   1
  -4   5   8 2758.95  407.44   1
   4  -5  -8 3523.17  669.73   1
   4  -5  -8 2422.77  409.82   1
  -4   5   9  273.51   70.95   1
  -4   5   9  182.46   64.19   1
   4  -5  -9   18.12  227.81   1
   4  -5  -9  180.22   79.80   1
  -4   5  10  429.97  511.23   1
  -4   5  10 1168.14  179.10   1
  -4   5  10  999.32  176.10   1
   4  -5 -10 1009.51  379.49   1
   4  -5 -10 1145.60  189.67   1
  -4   5  11 3469.33 1123.36   1
  -4   5  11 4695.35  671.10   1
  -4   5  11 4555.89  670.46   1
   4  -5 -11 2706.53 1062.81   1
   4  -5 -11 4942.89  673.29   1
  -4   6   116149.26 6071.74   1
  -4   6   129731.08 3892.59   1
  -4   6   127873.88 3891.66   1
   4  -6  -128200.17 6080.39   1
   4  -6  -124782.46 3895.61   1
  -4   6   213972.35 4641.04   1
  -4   6   222411.92 2976.74   1
  -4   6   221034.99 2976.43   1
   4  -6  -222261.09 4653.02   1
   4  -6  -219492.32 2979.04   1
  -4   6   3 4584.83 1011.56   1
  -4   6   3 4545.32  639.28   1
  -4   6   3 4293.49  638.47   1
   4  -6  -3 4997.47 1013.74   1
   4  -6  -3 4246.42  641.71   1
  -4   6   4  292.44  327.15   1
  -4   6   4  469.21   85.32   1
  -4   6   4  425.34   85.89   1
   4  -6  -4  426.08  248.54   1
   4  -6  -4  410.11   96.26   1
  -4   6   5 4328.07  899.46   1
  -4   6   5 3669.41  532.90   1
  -4   6   5 3599.32  532.13   1
   4  -6  -5 3992.40  848.29   1
   4  -6  -5 3513.96  534.40   1
  -4   6   621840.37 3580.14   1
  -4   6   617204.71 2284.96   1
  -4   6   614642.88 2283.81   1
   4  -6  -619778.96 3574.34   1
   4  -6  -615126.28 2285.20   1
  -4   6   717922.62 2911.34   1
  -4   6   713520.14 1847.01   1
  -4   6   713018.28 1845.48   1
   4  -6  -711469.20 1847.57   1
  -4   6   8 4242.59  869.91   1
  -4   6   8 3579.16  515.18   1
  -4   6   8 3443.48  515.01   1
   4  -6  -8 3371.81  827.77   1
   4  -6  -8 3423.98  517.29   1
  -4   6   9  824.48  484.88   1
  -4   6   9  635.64  109.94   1
  -4   6   9  499.85  106.58   1
   4  -6  -9  443.65  344.45   1
   4  -6  -9  572.45  116.17   1
  -4   6  10  555.58  107.04   1
  -4   6  10  505.77  104.32   1
   4  -6 -10  416.57  353.39   1
   4  -6 -10  582.68  116.66   1
  -4   7   1 4117.34 1292.37   1
  -4   7   1 5906.46  815.79   1
  -4   7   1 5728.84  815.86   1
   4  -7  -1 5953.20 1285.24   1
   4  -7  -1 5306.57  819.82   1
  -4   7   2 4842.26 1807.80   1
  -4   7   2 8483.85 1160.52   1
  -4   7   2 8476.09 1160.11   1
   4  -7  -2 7915.81 1813.74   1
   4  -7  -2 7347.28 1163.66   1
  -4   7   3  782.61  329.22   1
  -4   7   3  845.11  141.17   1
  -4   7   3  833.69  143.66   1
   4  -7  -3 1141.45  303.38   1
   4  -7  -3  821.49  145.84   1
  -4   7   4  340.32  277.80   1
  -4   7   4  141.65   55.88   1
  -4   7   4   71.23   50.34   1
   4  -7  -4   63.67  229.09   1
   4  -7  -4   31.33   55.17   1
  -4   7   5  208.84  408.57   1
  -4   7   5   86.21   49.21   1
  -4   7   5  102.24   51.80   1
   4  -7  -5  250.78  288.26   1
   4  -7  -5   99.92   65.34   1
  -4   7   6 1262.65  483.06   1
  -4   7   6  943.52  153.40   1
  -4   7   6  907.31  155.23   1
   4  -7  -6 1357.65  376.02   1
   4  -7  -6  820.46  158.58   1
  -4   7   7 2992.68  635.74   1
  -4   7   7 2153.61  337.97   1
  -4   7   7 2210.24  339.83   1
   4  -7  -7 2251.75  618.85   1
   4  -7  -7 2272.42  342.26   1
  -4   7   8  618.03  121.80   1
  -4   7   8  720.35  135.10   1
   4  -7  -8 1102.49  377.35   1
   4  -7  -8  625.76  128.14   1
  -4   7   9  334.56  374.02   1
  -4   7   9   71.57   58.66   1
  -4   7   9   57.46   66.31   1
   4  -7  -9  216.11  320.45   1
   4  -7  -9  140.22   69.28   1
  -4   8   1  880.21  432.11   1
  -4   8   1  851.36  153.43   1
  -4   8   1  982.88  162.83   1
   4  -8  -1 1035.03  354.98   1
   4  -8  -1  907.25  162.47   1
  -4   8   2 1008.66  412.66   1
  -4   8   2 1219.21  194.17   1
  -4   8   2 1201.50  194.18   1
   4  -8  -2 1042.55  403.54   1
   4  -8  -2 1259.48  202.69   1
  -4   8   3  245.32  336.67   1
  -4   8   3  441.07   92.38   1
  -4   8   3  466.01   91.28   1
   4  -8  -3  460.09  304.69   1
   4  -8  -3  499.17  120.00   1
  -4   8   4   91.17  327.29   1
  -4   8   4  211.66   72.36   1
  -4   8   4  208.57   67.80   1
   4  -8  -4  603.04  317.44   1
   4  -8  -4  168.79   78.47   1
  -4   8   5  882.91  456.01   1
  -4   8   5  655.27  133.38   1
  -4   8   5  766.93  135.31   1
   4  -8  -5  888.79  399.61   1
   4  -8  -5  815.81  139.94   1
  -4   8   6  961.78  451.54   1
  -4   8   6  905.75  153.70   1
  -4   8   6  909.89  152.88   1
   4  -8  -6 1052.30  350.31   1
   4  -8  -6  851.15  158.72   1
  -4   8   7  255.15  468.99   1
  -4   8   7  175.20   60.92   1
  -4   8   7  157.41   83.81   1
   4  -8  -7   74.39  340.83   1
   4  -8  -7  123.82   72.70   1
  -4   9   1 2713.23  694.24   1
  -4   9   1 2686.61  400.94   1
  -4   9   1 2500.19  401.66   1
   4  -9  -1 2930.20  685.94   1
   4  -9  -1 2919.48  409.67   1
  -4   9   2 1141.06  501.71   1
  -4   9   2 1418.98  204.36   1
  -4   9   2 1078.42  206.16   1
   4  -9  -2 1392.07  498.71   1
   4  -9  -2 1223.15  215.61   1
  -4   9   3 1096.52  450.31   1
  -4   9   3 1350.91  207.82   1
  -4   9   3 1213.22  208.27   1
   4  -9  -3 1455.82  429.19   1
   4  -9  -3 1213.41  218.76   1
  -4   9   4 2830.20  892.29   1
  -4   9   4 3081.39  503.38   1
  -4   9   4 3688.18  506.05   1
   4  -9  -4 4187.76  832.20   1
   4  -9  -4 3424.45  510.65   1
  -4   9   5 6072.54 1445.44   1
  -3 -12   1 2300.53  729.69   1
   3  12  -1 4321.62  781.44   1
  -3 -12   2  216.60  332.01   1
   3  12  -2  -91.57  481.46   1
  -3 -12   3  111.03  416.60   1
   3  12  -3  418.85  478.17   1
  -3 -11   1  441.92  281.02   1
   3  11  -1  807.71  353.61   1
  -3 -11   2  -66.52  268.67   1
   3  11  -2  674.08  509.28   1
  -3 -11   3  380.12  280.95   1
   3  11  -3  477.21  538.41   1
  -3 -11   4  519.60  366.92   1
   3  11  -4  958.21  629.81   1
  -3 -11   5  248.03  315.53   1
   3  11  -5  466.31  577.06   1
  -3 -10   1 2023.04  529.35   1
   3  10  -1 2573.65  548.80   1
  -3 -10   2 1661.07  480.36   1
   3  10  -2 2237.12  509.84   1
  -3 -10   3   -0.89  292.84   1
   3  10  -3  177.61  439.14   1
  -3 -10   4   29.21  302.39   1
   3  10  -4  -87.74  492.54   1
  -3 -10   5  441.81  349.89   1
   3  10  -5  583.50  601.83   1
   3  10  -6 2882.31  885.21   1
   3  10  -7  719.33  659.47   1
  -3  -9   1 1646.74  529.21   1
   3   9  -1 3253.86  551.54   1
  -3  -9   2  832.17  283.31   1
   3   9  -2 1135.88  325.79   1
  -3  -9   3 2678.86  700.60   1
   3   9  -3 3369.83  700.78   1
  -3  -9   4 6686.83 1655.88   1
   3   9  -4 9004.82 1693.99   1
  -3  -9   5 2064.27  570.36   1
   3   9  -5 2438.22  662.48   1
   3   9  -6  408.90  578.67   1
   3   9  -7  843.86  517.53   1
   3   9  -8  202.42  523.06   1
  -3  -8   1  688.25  247.92   1
   3   8  -1  965.00  247.44   1
  -3  -8   2 1107.81  310.08   1
   3   8  -2 1250.06  310.89   1
  -3  -8   3  279.67  208.41   1
   3   8  -3  423.90  242.05   1
  -3  -8   410217.48 2347.67   1
   3   8  -411082.53 2351.92   1
  -3  -8   5 7884.15 1905.27   1
   3   8  -5 9795.46 1930.08   1
   3   8  -6  480.93  498.55   1
   3   8  -7  396.24  418.48   1
  -3  -8   8   55.21   59.44   1
   3   8  -8  167.67  442.46   1
   3   8  -8   88.06   63.48   1
  -3  -8   9  253.88   80.08   1
   3   8  -9  521.00  381.82   1
   3   8  -9  -53.33   76.75   1
   3   8  -9  201.39   79.82   1
  -3  -7   1 1730.88  581.25   1
   3   7  -1 3445.62  582.39   1
  -3  -7   2 3865.44 1006.48   1
   3   7  -2 5447.06 1006.43   1
  -3  -7   3 2082.91  541.17   1
   3   7  -3 2816.95  551.79   1
  -3  -7   4  138.02  218.14   1
   3   7  -4  -36.11  188.56   1
   3   7  -5  -16.13  239.48   1
  -3  -7   6   96.30   45.47   1
   3   7  -6  -67.28  266.88   1
   3   7  -6   13.26   39.11   1
   3   7  -6   56.62   46.45   1
   3   7  -7 1413.81  322.33   1
   3   7  -7   28.53   49.65   1
  -3  -7   8  175.38   59.71   1
   3   7  -8  226.23  307.91   1
   3   7  -8  -16.97   54.82   1
  -3  -7   9  248.81   83.47   1
   3   7  -9  -15.08   83.32   1
  -3  -7  10  464.41  115.50   1
   3   7 -10   -9.79   99.59   1
  -3  -6   1  656.46  177.60   1
   3   6  -1  664.53  166.22   1
  -3  -6   2  914.07  262.22   1
   3   6  -2 1275.81  259.18   1
   3   6  -3  667.56  186.78   1
   3   6  -4 3263.67  741.83   1
  -3  -6   5 3945.23  300.09   1
   3   6  -5 5898.31  498.52   1
  -3  -6   6 2203.35  172.82   1
   3   6  -6 2567.68  333.49   1
  -3  -6   7  153.51   63.88   1
   3   6  -7  322.96  320.39   1
   3   6  -7   -6.54   45.79   1
   3   6  -8   13.89   42.94   1
  -3  -6   9  155.38   85.12   1
  -3  -6  10 1233.25  126.25   1
   3   6 -10   65.30  122.90   1
  -3  -6  11 1420.96  147.03   1
   3   6 -11  -11.23  130.86   1
   3   5  -1  123.36   95.58   1
   3   5  -2 5429.20 1205.67   1
  -3  -5   313281.24 1828.40   1
  -3  -5   312084.85 1832.55   1
   3   5  -312608.59 2843.59   1
  -3  -5   4 3000.35  441.95   1
  -3  -5   5  716.37  117.27   1
   3   5  -5 1015.05  215.78   1
   3   5  -5  596.21  114.13   1
   3   5  -6 2166.32  233.41   1
   3   5  -6  519.28  112.18   1
  -3  -5   7 1161.57  188.70   1
   3   5  -7 1275.57  284.98   1
  -3  -5   8 9695.71  639.16   1
   3   5  -8   12.15  626.67   1
   3   5  -9   31.70   66.87   1
   3   5 -10   36.43   73.87   1
  -3  -5  11  736.60  108.09   1
   3   5 -11   36.44  102.96   1
  -3  -5  12  -13.87   73.71   1
   3   5 -12  -29.62   87.56   1
   3   4  -1 3575.20  795.40   1
  -3  -4   2 5451.75  771.30   1
  -3  -4   2 5431.65  772.71   1
   3   4  -2 5198.60 1188.23   1
   3   4  -2 5221.77  771.07   1
  -3  -4   321238.53 3284.75   1
   3   4  -326456.84 5119.75   1
   3   4  -324196.79 3284.24   1
  -3  -4   4 7324.77 1026.12   1
   3   4  -4 6846.63 1579.26   1
   3   4  -4 7020.54 1023.08   1
  -3  -4   5  275.95   63.35   1
   3   4  -5  494.64  143.47   1
   3   4  -5  419.90  131.28   1
   3   4  -5  253.10   60.72   1
  -3  -4   6 2552.95  349.64   1
   3   4  -6 2763.27  522.27   1
   3   4  -6 3188.96  520.91   1
   3   4  -6 1957.39  343.48   1
  -3  -4   7   -0.96   41.42   1
   3   4  -7   22.45   43.54   1
  -3  -4   8 4774.53  403.14   1
   3   4  -8 1021.67  397.54   1
  -3  -4   9 3903.00  426.55   1
   3   4  -9 1930.32  420.62   1
  -3  -4  10  268.53   88.64   1
   3   4 -10  235.50   90.09   1
   3   4 -11  346.85  104.65   1
  -3  -4  12   67.20   84.68   1
   3   4 -12   45.29   92.03   1
  -3  -3   119946.49 2794.55   1
  -3  -3   120606.33 2794.25   1
   3   3  -120442.40 4353.36   1
   3   3  -117840.99 2795.60   1
  -3  -3   2 9724.16 1349.00   1
   3   3  -2 9546.67 2090.24   1
   3   3  -2 9084.07 2090.25   1
   3   3  -2 9128.51 1349.45   1
  -3  -3   3  386.43   71.38   1
   3   3  -3  388.75  118.99   1
   3   3  -3  389.54  126.27   1
  -3  -3   4 1007.02  156.38   1
   3   3  -4  868.58  223.16   1
   3   3  -4  980.53  233.50   1
   3   3  -5 1037.48  292.92   1
   3   3  -5 1677.71  303.03   1
   3   3  -5 1318.58  203.40   1
  -3  -3   6 4636.21  687.76   1
   3   3  -6 4849.97  688.31   1
  -3  -3   7 2288.65  307.43   1
   3   3  -7 1824.92  305.02   1
  -3  -3   8 1597.81  192.31   1
   3   3  -8  852.09  187.39   1
  -3  -3   9  192.89   76.49   1
  -3  -3  10  446.40   82.02   1
   3   3 -10  256.80   88.44   1
  -3  -3  11  583.65  108.83   1
   3   3 -11  537.91  116.60   1
  -3  -3  12   50.93   66.14   1
   3   3 -12   17.33   73.71   1
  -3  -3  13  219.12   82.88   1
   3   3 -13  189.63   88.36   1
  -3  -2   1 7678.76 1107.41   1
  -3  -2   1 7868.01 1108.27   1
   3   2  -1 7997.44 1713.10   1
   3   2  -1 7567.40 1108.94   1
  -3  -2   2 1777.61  269.05   1
  -3  -2   2 1926.36  270.23   1
   3   2  -2 1640.81  408.34   1
   3   2  -2 1748.87  269.59   1
  -3  -2   3  673.68  109.35   1
  -3  -2   3  639.65  109.65   1
   3   2  -3  790.79  169.98   1
   3   2  -3  672.87  110.27   1
  -3  -2   4 4349.59  618.15   1
   3   2  -4 4039.56  942.78   1
   3   2  -4 5045.99  945.14   1
   3   2  -4 4112.11  617.89   1
  -3  -2   5  763.63  120.19   1
   3   2  -5  537.91  166.28   1
   3   2  -5  798.86  180.22   1
   3   2  -5  688.82  118.94   1
  -3  -2   6  503.27   87.67   1
   3   2  -6  455.01   87.26   1
  -3  -2   7  174.01   46.74   1
   3   2  -7  148.18   59.11   1
  -3  -2   8  209.29   64.93   1
   3   2  -8   97.19   59.85   1
  -3  -2   9 1852.27  221.33   1
   3   2  -9  937.98  210.62   1
  -3  -2  10 2943.14  319.10   1
   3   2 -10 1379.16  315.90   1
  -3  -2  11  110.46   66.19   1
   3   2 -11  141.76   75.40   1
  -3  -2  12  445.53   92.58   1
   3   2 -12  373.45  117.71   1
  -3  -2  13  341.94   95.33   1
   3   2 -13  142.13   99.66   1
  -3  -1   110732.44 2265.59   1
  -3  -1   110309.02 1461.29   1
   3   1  -1 9548.27 2265.39   1
   3   1  -110094.70 1462.07   1
  -3  -1   218691.53 4159.89   1
  -3  -1   218989.60 2672.25   1
  -3  -1   220487.49 2672.91   1
   3   1  -217601.67 4158.44   1
   3   1  -216812.10 2672.84   1
  -3  -1   3 1075.55  173.36   1
  -3  -1   3 1149.14  174.52   1
   3   1  -3 1148.16  174.73   1
  -3  -1   4 1033.67  156.74   1
   3   1  -4  807.70  238.51   1
   3   1  -4  979.59  156.87   1
  -3  -1   5  544.15   86.79   1
   3   1  -5  380.35   84.75   1
  -3  -1   6 7697.28 1049.55   1
   3   1  -6 6882.86 1049.50   1
  -3  -1   715723.38 2200.17   1
   3   1  -715049.81 2200.81   1
  -3  -1   8 4175.55  561.71   1
   3   1  -8 3492.54  563.01   1
  -3  -1   9   57.40   56.93   1
   3   1  -9  114.73   50.71   1
   3   1 -10  412.39   86.83   1
  -3  -1  11  442.92   99.99   1
   3   1 -11  238.36   94.40   1
  -3  -1  12 4280.48  588.11   1
   3   1 -12 3719.49  586.11   1
  -3  -1  13 2645.78  390.23   1
   3   1 -13 2485.99  391.93   1
  -3   0   1 9592.16 2245.51   1
  -3   0   110272.70 1448.43   1
   3   0  -1 6992.00 2246.36   1
   3   0  -110233.12 1447.93   1
   3   0  -110381.90 1449.29   1
  -3   0   232802.11 7099.91   1
  -3   0   233691.60 4550.45   1
  -3   0   231560.99 4549.93   1
   3   0  -229185.49 7098.36   1
   3   0  -230763.43 4551.12   1
  -3   0   3 8926.25 1921.39   1
  -3   0   3 8607.54 1241.26   1
  -3   0   3 8730.63 1241.77   1
   3   0  -3 8100.53 1922.03   1
   3   0  -3 8666.42 1242.60   1
  -3   0   4 1109.92  260.58   1
  -3   0   4 1067.54  175.59   1
  -3   0   4 1199.50  176.89   1
   3   0  -4 1263.69  283.03   1
   3   0  -4 1130.88  176.36   1
  -3   0   5 7488.45 1525.87   1
  -3   0   5 7057.26  989.23   1
   3   0  -5 7459.97 1525.51   1
   3   0  -5 6543.44  990.07   1
  -3   0   6  260.76   59.63   1
   3   0  -6  313.41  148.17   1
   3   0  -6  217.52   67.36   1
  -3   0   7 7200.16  983.89   1
   3   0  -7 6438.61  984.69   1
  -3   0   8 9180.43 1274.82   1
   3   0  -8 8559.90 1274.88   1
  -3   0   9  146.51   47.56   1
   3   0  -9  113.79   55.74   1
  -3   0  10 1993.35  264.79   1
   3   0 -10 1435.19  265.09   1
  -3   0  11  255.53   69.20   1
   3   0 -11  138.28   63.74   1
  -3   0  12  668.39  116.91   1
   3   0 -12  458.83  134.46   1
  -3   0  13  869.71  143.13   1
   3   0 -13  433.63  134.93   1
  -3   1   1 2307.04  456.91   1
  -3   1   1 2093.18  295.93   1
  -3   1   1 1953.73  295.45   1
   3  -1  -1 1321.65  460.36   1
   3  -1  -1 1923.28  295.48   1
   3  -1  -1 2001.68  297.13   1
  -3   1   2 3878.56  793.77   1
  -3   1   2 3720.77  516.83   1
  -3   1   2 3437.29  516.53   1
   3  -1  -2 3325.11  798.36   1
   3  -1  -2 3450.30  517.98   1
  -3   1   3   37.90  117.06   1
  -3   1   3   43.74   34.88   1
  -3   1   3   91.51   38.33   1
   3  -1  -3  105.72  120.45   1
   3  -1  -3   64.83   32.82   1
  -3   1   4 8770.46 1842.19   1
  -3   1   4 8556.69 1189.43   1
  -3   1   4 8426.91 1189.98   1
   3  -1  -4 9445.47 1843.18   1
   3  -1  -4 7711.36 1190.25   1
  -3   1   515029.70 3164.03   1
  -3   1   514539.56 2035.93   1
  -3   1   514505.19 2035.76   1
   3  -1  -514142.54 3161.94   1
   3  -1  -513536.97 2036.63   1
  -3   1   6 6107.20 1307.05   1
  -3   1   6 5817.11  847.81   1
   3  -1  -6 6795.05 1309.85   1
   3  -1  -6 5804.61  849.63   1
  -3   1   7    0.91  102.33   1
  -3   1   7  -10.73   38.48   1
   3  -1  -7   26.33  112.01   1
   3  -1  -7  -12.50   55.73   1
  -3   1   8   43.83  110.54   1
  -3   1   8   27.49   39.31   1
   3  -1  -8   85.65   47.78   1
  -3   1   9 1623.04  238.14   1
   3  -1  -9 1466.43  238.57   1
  -3   1  10 1675.38  222.48   1
   3  -1 -10 1174.33  226.05   1
  -3   1  11 1365.08  174.51   1
   3  -1 -11  755.18  173.53   1
  -3   1  12  338.32   73.98   1
   3  -1 -12  119.59   74.69   1
  -3   1  13  294.21   84.49   1
   3  -1 -13   93.41   75.68   1
  -3   2   1 4582.69 1070.09   1
  -3   2   1 5518.20  692.38   1
  -3   2   1 5057.96  691.71   1
   3  -2  -1 3121.25 1069.27   1
   3  -2  -1 4721.21  691.50   1
   3  -2  -1 3900.51  692.85   1
  -3   2   2  496.46  174.54   1
  -3   2   2  528.49   82.47   1
  -3   2   2  407.07   81.10   1
   3  -2  -2  512.47  189.47   1
   3  -2  -2  407.83   85.67   1
  -3   2   3   62.65  140.31   1
  -3   2   3  130.95   41.00   1
  -3   2   3   93.34   42.88   1
   3  -2  -3   46.42  157.14   1
   3  -2  -3   91.06   38.56   1
  -3   2   4  334.01  169.95   1
  -3   2   4  349.41   67.39   1
  -3   2   4  324.87   69.90   1
   3  -2  -4  412.99  143.66   1
   3  -2  -4  324.81   70.07   1
  -3   2   5  539.26  191.42   1
  -3   2   5  527.36   97.87   1
  -3   2   5  538.03   98.63   1
   3  -2  -5  589.30  186.37   1
   3  -2  -5  610.05  102.64   1
  -3   2   6  104.00  151.83   1
  -3   2   6  177.10   56.19   1
  -3   2   6  196.99   58.30   1
   3  -2  -6  285.32  173.61   1
   3  -2  -6  275.97   62.34   1
  -3   2   7  297.30  181.87   1
  -3   2   7  354.70   78.25   1
   3  -2  -7  512.65  171.68   1
   3  -2  -7  401.66   82.70   1
  -3   2   8 1199.55  198.65   1
   3  -2  -8 1152.90  306.96   1
   3  -2  -8 1374.23  201.59   1
  -3   2   9  496.50  172.86   1
  -3   2   9  523.21   97.82   1
   3  -2  -9  446.46  161.37   1
   3  -2  -9  504.42   99.68   1
  -3   2  10  124.45   46.29   1
   3  -2 -10   58.55   54.70   1
  -3   2  11  714.37  110.55   1
   3  -2 -11  526.69  114.48   1
  -3   2  12   76.43   68.66   1
   3  -2 -12   58.28   64.91   1
  -3   2  13  463.17   96.83   1
   3  -2 -13  176.04   85.61   1
  -3   3   1 6590.95 1754.71   1
  -3   3   1 8045.45 1131.70   1
  -3   3   1 8120.56 1131.37   1
   3  -3  -1 6257.32 1754.03   1
   3  -3  -1 7775.67 1131.37   1
   3  -3  -1 7795.81 1134.01   1
  -3   3   2 2642.06  639.88   1
  -3   3   2 2896.18  411.71   1
  -3   3   2 2832.64  411.61   1
   3  -3  -2 2462.81  643.82   1
   3  -3  -2 2706.72  413.12   1
  -3   3   3  141.52  151.58   1
  -3   3   3  114.09   42.85   1
  -3   3   3  173.00   57.25   1
   3  -3  -3  113.79  144.14   1
   3  -3  -3  120.55   47.28   1
  -3   3   4  175.98  168.09   1
  -3   3   4  163.18   45.90   1
  -3   3   4  171.55   51.94   1
   3  -3  -4  201.23  148.46   1
   3  -3  -4  138.29   49.67   1
  -3   3   5 6659.43 1439.10   1
  -3   3   5 6195.93  927.06   1
  -3   3   5 6572.19  928.59   1
   3  -3  -5 6820.57 1434.08   1
   3  -3  -5 6502.71  928.64   1
  -3   3   614839.15 2831.45   1
  -3   3   612861.04 1818.78   1
  -3   3   611943.10 1818.43   1
   3  -3  -613946.74 2827.06   1
   3  -3  -613008.35 1820.05   1
  -3   3   7 5870.38 1082.04   1
  -3   3   7 4823.87  696.43   1
  -3   3   7 4591.67  696.87   1
   3  -3  -7 5800.77 1078.30   1
   3  -3  -7 4760.37  697.97   1
  -3   3   8   46.02  200.81   1
  -3   3   8   90.07   55.16   1
   3  -3  -8  184.04  155.10   1
   3  -3  -8  132.18   56.53   1
  -3   3   9  807.26  259.23   1
  -3   3   9  747.74  124.61   1
   3  -3  -9  656.60  225.52   1
   3  -3  -9  720.62  129.19   1
  -3   3  10 1125.02  335.08   1
  -3   3  10 1385.49  204.84   1
   3  -3 -10  979.09  314.26   1
   3  -3 -10 1273.97  205.35   1
  -3   3  11 5181.78  729.83   1
   3  -3 -11 4856.02  730.60   1
  -3   3  12 3419.62  456.03   1
   3  -3 -12 2703.69  458.81   1
  -3   3  13   -7.14   85.09   1
   3  -3 -13    2.02   63.09   1
  -3   4   110054.67 3303.39   1
  -3   4   116290.12 2123.15   1
  -3   4   114746.92 2121.91   1
   3  -4  -115649.42 3310.60   1
   3  -4  -113990.23 2123.76   1
  -3   4   2  933.39  302.99   1
  -3   4   2 1034.02  155.41   1
  -3   4   2  965.32  155.04   1
   3  -4  -2 1089.09  324.44   1
   3  -4  -2  897.32  157.90   1
  -3   4   3 4360.38  913.42   1
  -3   4   3 3846.19  582.50   1
  -3   4   3 4232.30  583.04   1
   3  -4  -3 4231.54  913.14   1
   3  -4  -3 3873.98  583.93   1
  -3   4   4 3927.49  885.67   1
  -3   4   4 4028.65  560.12   1
  -3   4   4 3821.86  559.67   1
   3  -4  -4 4657.33  877.71   1
   3  -4  -4 3585.91  560.97   1
  -3   4   5 1105.11  257.88   1
  -3   4   5  902.33  142.04   1
  -3   4   5  904.57  144.83   1
   3  -4  -5  949.03  283.68   1
   3  -4  -5  795.79  143.47   1
  -3   4   613319.56 2405.44   1
  -3   4   610111.61 1542.65   1
  -3   4   610722.53 1542.58   1
   3  -4  -610328.69 2396.52   1
   3  -4  -611280.35 1544.22   1
  -3   4   7 3006.26  565.76   1
  -3   4   7 2345.03  350.03   1
  -3   4   7 2434.27  349.91   1
   3  -4  -7 3165.29  555.47   1
   3  -4  -7 2086.55  351.33   1
  -3   4   8 1787.11  431.37   1
  -3   4   8 1690.93  256.71   1
  -3   4   8 1609.34  256.52   1
   3  -4  -8 1637.65  417.50   1
   3  -4  -8 1764.07  258.98   1
  -3   4   9 3211.35  599.34   1
  -3   4   9 2420.98  371.52   1
  -3   4   9 2442.74  372.58   1
   3  -4  -9 2401.18  581.11   1
   3  -4  -9 2565.62  373.56   1
  -3   4  10  294.81   69.35   1
  -3   4  10  273.30   65.42   1
   3  -4 -10  396.59  203.78   1
   3  -4 -10  246.76   74.17   1
  -3   4  11  900.40  373.17   1
  -3   4  11 1339.33  204.88   1
  -3   4  11 1303.26  203.74   1
   3  -4 -11 1181.38  204.18   1
  -3   4  12 1446.35  218.62   1
   3  -4 -12 1307.03  221.21   1
   3  -4 -13   12.50   65.13   1
  -3   5   1 1494.49  451.54   1
  -3   5   1 1914.46  267.53   1
  -3   5   1 1747.87  268.88   1
   3  -5  -1 1702.74  452.13   1
   3  -5  -1 1640.72  270.17   1
  -3   5   2  395.18  247.41   1
  -3   5   2  329.85   73.94   1
  -3   5   2  317.33   78.19   1
   3  -5  -2  411.79  228.11   1
   3  -5  -2  340.37   85.56   1
  -3   5   3 8643.77 2226.77   1
  -3   5   310380.61 1429.18   1
  -3   5   3 9570.05 1428.66   1
   3  -5  -312375.00 2229.99   1
   3  -5  -3 9903.70 1429.89   1
  -3   5   417120.88 3287.96   1
  -3   5   416300.35 2107.34   1
  -3   5   414534.83 2106.19   1
   3  -5  -419742.31 3288.20   1
   3  -5  -412483.69 2107.80   1
  -3   5   5 5099.74  971.51   1
  -3   5   5 4148.11  614.48   1
  -3   5   5 4336.69  615.90   1
   3  -5  -5 5094.55  959.16   1
   3  -5  -5 4005.52  615.55   1
  -3   5   6  215.51  329.32   1
  -3   5   6   -8.74   44.02   1
  -3   5   6    6.76   39.84   1
   3  -5  -6  174.50  247.46   1
   3  -5  -6  -13.98   41.43   1
  -3   5   7   51.31  316.78   1
  -3   5   7   99.44   42.36   1
  -3   5   7  126.74   50.20   1
   3  -5  -7   31.63   46.26   1
  -3   5   8 1516.77  419.50   1
  -3   5   8 1173.98  190.89   1
  -3   5   8 1206.66  192.11   1
   3  -5  -8 1232.35  358.88   1
   3  -5  -8 1250.12  194.75   1
  -3   5   9 7365.30 1157.21   1
  -3   5   9 5196.69  716.56   1
  -3   5   9 4559.59  716.05   1
   3  -5  -9 4752.12  717.32   1
  -3   5  10 1986.69  592.40   1
  -3   5  10 2095.34  318.93   1
  -3   5  10 2213.78  323.29   1
   3  -5 -10 2028.54  529.00   1
   3  -5 -10 2047.95  321.92   1
  -3   5  11    2.73  376.96   1
  -3   5  11  101.32   70.95   1
  -3   5  11  146.30   82.53   1
   3  -5 -11  308.58  268.24   1
   3  -5 -11  210.58   76.17   1
  -3   5  12   81.99  345.67   1
  -3   5  12  232.76   89.14   1
  -3   5  12  173.57   68.31   1
   3  -5 -12  310.36  306.07   1
   3  -5 -12  232.20   94.91   1
  -3   6   1  972.44  338.16   1
  -3   6   1 1038.61  159.75   1
  -3   6   1  983.20  160.16   1
   3  -6  -1  944.96  324.61   1
   3  -6  -1  965.12  163.67   1
  -3   6   2   63.78  268.61   1
  -3   6   2  325.87   72.46   1
  -3   6   2  428.54   82.44   1
   3  -6  -2  356.92  231.65   1
   3  -6  -2  314.53   77.69   1
  -3   6   3  513.17  317.60   1
  -3   6   3  602.82  103.33   1
  -3   6   3  514.74  102.85   1
   3  -6  -3 1016.56  243.76   1
   3  -6  -3  572.01  109.96   1
  -3   6   4 1799.02  417.97   1
  -3   6   4 1494.69  225.73   1
  -3   6   4 1386.74  224.38   1
   3  -6  -4 1870.53  382.07   1
   3  -6  -4 1432.04  230.01   1
  -3   6   5  243.16  323.16   1
  -3   6   5  131.17   48.45   1
  -3   6   5  130.70   52.52   1
   3  -6  -5    3.42  186.83   1
   3  -6  -5  144.23   54.63   1
  -3   6   6  225.32  311.24   1
  -3   6   6  136.70   59.54   1
  -3   6   6  170.87   52.63   1
   3  -6  -6  290.26  304.90   1
   3  -6  -6  191.62   64.54   1
  -3   6   7    3.03  376.43   1
  -3   6   7  101.52   44.36   1
  -3   6   7   86.43   49.87   1
   3  -6  -7  148.58  233.96   1
   3  -6  -7   73.05   46.99   1
  -3   6   8  244.13  370.41   1
  -3   6   8  109.03   52.39   1
  -3   6   8  140.99   50.81   1
   3  -6  -8  113.23  253.80   1
   3  -6  -8   65.11   57.19   1
  -3   6   9  154.24  376.62   1
  -3   6   9   21.96   38.99   1
  -3   6   9   51.84   42.07   1
   3  -6  -9   14.89   43.91   1
  -3   6  10  193.10  416.82   1
  -3   6  10  193.36   68.89   1
  -3   6  10  180.98   70.16   1
   3  -6 -10  225.08   78.89   1
  -3   6  11  -11.15  472.04   1
  -3   6  11  105.38   65.36   1
  -3   6  11   72.32   65.62   1
   3  -6 -11  385.67  278.27   1
   3  -6 -11  109.34   73.96   1
  -3   7   1 1998.41  474.64   1
  -3   7   1 1815.89  263.11   1
  -3   7   1 1804.32  261.89   1
   3  -7  -1 1664.29  440.55   1
   3  -7  -1 1436.09  265.06   1
  -3   7   2  364.63  261.13   1
  -3   7   2  325.88   73.54   1
  -3   7   2  326.56   75.70   1
   3  -7  -2  356.28  226.42   1
   3  -7  -2  364.76   79.17   1
  -3   7   3 1152.02  458.34   1
  -3   7   3 1837.65  265.72   1
  -3   7   3 1751.28  266.95   1
   3  -7  -3 2457.86  452.02   1
   3  -7  -3 1626.26  267.81   1
  -3   7   4 3239.51  773.07   1
  -3   7   4 3510.93  480.09   1
  -3   7   4 3021.84  479.05   1
   3  -7  -4 3390.85  759.17   1
  -3   7   5 6026.85 1186.37   1
  -3   7   5 5387.03  745.04   1
  -3   7   5 4772.35  744.40   1
   3  -7  -5 6123.64 1165.48   1
   3  -7  -5 5050.58  746.08   1
  -3   7   6 1630.30  399.00   1
  -3   7   6  818.96  139.66   1
  -3   7   6  749.30  137.89   1
   3  -7  -6 1182.22  362.49   1
   3  -7  -6  835.10  145.32   1
  -3   7   7  151.16  347.39   1
  -3   7   7   11.01   40.21   1
  -3   7   7   -4.74   45.16   1
   3  -7  -7   55.89  240.97   1
   3  -7  -7  -10.48   45.95   1
  -3   7   8   59.74  344.33   1
  -3   7   8   -3.87   50.67   1
  -3   7   8   10.25   44.30   1
   3  -7  -8 -139.43  237.12   1
   3  -7  -8   28.93   53.37   1
  -3   7   9 1660.84  558.17   1
  -3   7   9 1666.91  245.81   1
  -3   7   9 1410.78  243.61   1
   3  -7  -9 1550.12  447.56   1
   3  -7  -9 1653.59  253.41   1
  -3   7  10 4279.56 1009.15   1
  -3   7  10 3796.28  575.67   1
  -3   7  10 3804.56  575.56   1
   3  -7 -10 4131.27  577.29   1
  -3   8   1  294.66  300.82   1
  -3   8   1  211.43   62.77   1
  -3   8   1  162.74   70.93   1
   3  -8  -1  242.99  220.76   1
   3  -8  -1  183.33   72.99   1
  -3   8   2 2162.26  653.25   1
  -3   8   2 2497.00  371.74   1
  -3   8   2 2484.60  373.58   1
   3  -8  -2 2593.58  602.84   1
   3  -8  -2 2521.17  378.08   1
  -3   8   3 1135.77  405.34   1
  -3   8   3 1455.02  213.30   1
  -3   8   3 1355.29  212.11   1
   3  -8  -3 1520.03  377.19   1
   3  -8  -3 1258.62  216.38   1
  -3   8   4  727.18  381.18   1
  -3   8   4  585.14  105.28   1
  -3   8   4  627.44  107.19   1
   3  -8  -4  665.63  242.57   1
   3  -8  -4  493.39  109.42   1
  -3   8   5 3876.73  848.70   1
  -3   8   5 3645.81  514.31   1
  -3   8   5 3240.07  514.37   1
   3  -8  -5 4513.10  812.77   1
   3  -8  -5 3462.86  516.75   1
  -3   8   6  857.76  393.83   1
  -3   8   6  450.46   85.25   1
  -3   8   6  270.81   84.85   1
   3  -8  -6  491.21  277.46   1
   3  -8  -6  417.15   90.85   1
  -3   8   7 1026.48  423.54   1
  -3   8   7  867.41  136.17   1
  -3   8   7  717.06  141.03   1
   3  -8  -7 1073.82  355.83   1
   3  -8  -7  737.84  141.06   1
  -3   8   8 3941.31  774.65   1
  -3   8   8 2893.11  387.84   1
  -3   8   8 2293.74  389.11   1
   3  -8  -8 3316.03  647.76   1
   3  -8  -8 2390.15  389.01   1
  -3   8   9   12.42  401.30   1
  -3   8   9  106.32   57.95   1
  -3   8   9   49.29   57.24   1
   3  -8  -9  148.94  362.58   1
   3  -8  -9  130.39   65.94   1
  -3   9   1  870.73  373.17   1
  -3   9   1  517.34   98.74   1
  -3   9   1  418.25   98.27   1
   3  -9  -1  391.66  315.64   1
   3  -9  -1  465.60  107.40   1
  -3   9   2 7022.96 1135.76   1
  -3   9   2 5055.27  694.71   1
  -3   9   2 4605.86  693.51   1
   3  -9  -2 5715.28 1108.33   1
   3  -9  -2 4244.94  698.64   1
  -3   9   3 7135.68 1482.96   1
  -3   9   3 6511.15  930.84   1
  -3   9   3 5989.09  930.33   1
   3  -9  -3 8612.50 1468.51   1
   3  -9  -3 6591.59  936.97   1
  -3   9   4  986.98  408.17   1
  -3   9   4  746.83  138.02   1
  -3   9   4  731.88  145.35   1
   3  -9  -4 1118.55  324.03   1
   3  -9  -4  738.09  141.77   1
  -3   9   5  301.44  466.02   1
  -3   9   5  230.40   68.75   1
  -3   9   5  224.44   74.15   1
   3  -9  -5  614.62  264.37   1
   3  -9  -5  165.36   91.29   1
  -3   9   6 -172.01  487.73   1
  -3   9   6   29.66   62.25   1
  -3   9   6   -2.99   48.09   1
   3  -9  -6  -63.81  261.82   1
   3  -9  -6  -51.41   61.49   1
  -3   9   7 3196.51  638.47   1
  -3   9   7 2210.16  261.80   1
  -3   9   7 1487.28  249.71   1
   3  -9  -7 2646.40  471.58   1
   3  -9  -7  878.77  251.71   1
  -3   9   8 3160.50  871.96   1
  -3   9   8 2872.90  382.90   1
   3  -9  -8 2467.58  690.84   1
   3  -9  -8 2118.58  380.75   1
  -3  10   1  968.60  391.16   1
  -3  10   1  380.40   97.39   1
  -3  10   1  300.05   86.85   1
   3 -10  -1  329.55  297.44   1
   3 -10  -1  400.00  125.73   1
  -3  10   2  227.60  388.88   1
  -3  10   2  162.76   78.94   1
  -3  10   2   51.02   95.19   1
   3 -10  -2  139.33  281.34   1
   3 -10  -2   28.68   91.09   1
  -3  10   3  886.06  441.22   1
  -3  10   3  792.07  144.81   1
  -3  10   3  787.67  155.31   1
   3 -10  -3  842.47  331.06   1
   3 -10  -3  714.21  149.56   1
  -3  10   4  256.91  407.61   1
  -3  10   4   33.69   58.38   1
  -3  10   4    0.00   64.53   1
   3 -10  -4   20.34  257.21   1
   3 -10  -4  122.24   77.57   1
  -3  10   5   39.45  522.33   1
  -3  10   5   88.61   59.84   1
  -3  10   5   44.35   71.99   1
   3 -10  -5  -35.10  283.02   1
   3 -10  -5   99.96   74.64   1
  -2 -12   1 1499.12  462.48   1
   2  12  -1 1472.21  553.02   1
  -2 -12   2 1482.03  461.96   1
   2  12  -2 1270.38  637.49   1
  -2 -12   3  759.74  396.80   1
   2  12  -3 1076.41  595.73   1
  -2 -11   1 1748.31  469.20   1
   2  11  -1 2315.71  530.49   1
  -2 -11   2 7194.82 1696.32   1
   2  11  -2 8149.99 1739.09   1
  -2 -11   316474.86 3913.08   1
   2  11  -320106.37 3949.03   1
  -2 -11   412863.12 2851.94   1
   2  11  -412397.23 2888.56   1
  -2 -11   5 2610.66  657.55   1
   2  11  -5 2423.13  753.07   1
  -2 -10   1  190.47  165.86   1
   2  10  -1  650.98  285.76   1
  -2 -10   2  879.50  267.04   1
   2  10  -2 1155.26  350.09   1
  -2 -10   311981.32 2831.18   1
   2  10  -314061.74 2854.94   1
  -2 -10   418431.93 4457.70   1
   2  10  -423926.53 4491.66   1
   2  10  -5 6738.73 1570.07   1
  -2 -10   6  359.88  346.40   1
   2  10  -6  494.83  433.57   1
  -2 -10   7  414.40  353.57   1
   2  10  -7   11.72  592.45   1
  -2  -9   1  625.72  233.53   1
   2   9  -1  939.28  268.18   1
  -2  -9   2  972.63  315.52   1
   2   9  -2 1968.83  382.05   1
  -2  -9   3  799.08  298.32   1
   2   9  -3 1100.82  482.36   1
  -2  -9   4 6184.28 1487.53   1
   2   9  -4 7416.34 1542.30   1
  -2  -9   5 3690.21  861.15   1
  -2  -9   6  273.03  295.75   1
   2   9  -6  311.33  450.07   1
  -2  -9   7  125.17  308.30   1
   2   9  -7  184.11  476.99   1
  -2  -9   8  -26.02  388.59   1
   2   9  -8  116.47  475.68   1
  -2  -8   1 1637.39  559.95   1
   2   8  -1 3968.93  588.37   1
  -2  -8   2 1398.26  404.12   1
   2   8  -2 2308.33  430.79   1
  -2  -8   3 2648.91  703.74   1
   2   8  -3 4042.76  746.02   1
  -2  -8   4 2738.05  695.82   1
   2   8  -4 3229.90  717.70   1
  -2  -8   5 2705.76  706.29   1
   2   8  -5 3697.60  804.01   1
  -2  -8   6 3990.95  421.92   1
  -2  -8   6 2424.23  224.23   1
   2   8  -6 4537.00  491.55   1
  -2  -8   7 4755.82  492.31   1
  -2  -8   7 2897.76  275.34   1
   2   8  -7 5719.69  606.77   1
  -2  -8   8 3172.41  443.65   1
   2   8  -8 3310.07  465.63   1
   2   8  -8 2041.45  196.96   1
  -2  -8   9  436.59  112.89   1
   2   8  -9  703.98  405.01   1
   2   8  -9   -1.69   91.01   1
   2   8  -9  505.03  102.46   1
  -2  -8  10  171.76  112.82   1
   2   8 -10   28.97   89.12   1
  -2  -7   1 9085.44 3224.11   1
   2   7  -123108.46 3233.72   1
  -2  -7   219574.39 5499.60   1
   2   7  -233394.67 5506.45   1
  -2  -7   323377.72 6030.44   1
   2   7  -332630.32 6034.74   1
  -2  -7   4 7775.03 1830.75   1
   2   7  -4 8976.82 1838.03   1
  -2  -7   5 2806.41  363.97   1
  -2  -7   5 2185.62  211.81   1
   2   7  -5 3438.07  416.18   1
   2   7  -5 1929.46  212.73   1
  -2  -7   6 4846.53  573.48   1
  -2  -7   6 3838.31  351.06   1
   2   7  -6 6141.94  635.75   1
   2   7  -6 3188.11  352.27   1
  -2  -7   719076.16 3338.63   1
  -2  -7   714359.04 2143.09   1
   2   7  -721176.46 3348.91   1
   2   7  -714097.89 2145.23   1
  -2  -7   814754.83 2070.99   1
   2   7  -814123.66 2073.28   1
  -2  -7   9 5694.83  531.73   1
   2   7  -9 5871.63  857.21   1
   2   7  -9 5467.44  537.02   1
  -2  -7  10  344.67   86.87   1
   2   7 -10   -2.61   79.97   1
   2   7 -10  210.46   97.98   1
  -2  -7  11  159.44   91.85   1
   2   7 -11   89.84   89.79   1
   2   7 -11  266.91  108.47   1
  -2  -6   1 2464.79  790.00   1
   2   6  -1 4825.56  795.00   1
  -2  -6   218735.31 5559.53   1
   2   6  -232694.60 5563.49   1
  -2  -6   330295.93 7936.92   1
   2   6  -343094.93 7940.26   1
  -2  -6   4 7287.59 1082.51   1
  -2  -6   4 7337.81  701.16   1
   2   6  -4 8077.54 1087.37   1
   2   6  -4 6554.63  702.63   1
  -2  -6   5  181.56  149.62   1
  -2  -6   5  176.74   47.86   1
   2   6  -5   73.87  227.91   1
   2   6  -5  103.90   41.18   1
   2   6  -5  115.81   44.81   1
  -2  -6   6  229.78  162.33   1
  -2  -6   6  107.81   42.28   1
   2   6  -6  370.18  267.00   1
   2   6  -6   10.02   42.72   1
  -2  -6   7 6468.34  912.78   1
  -2  -6   7 5737.61  585.96   1
   2   6  -7 7196.77  926.92   1
   2   6  -7 1941.57  580.06   1
  -2  -6   812512.17 1834.65   1
   2   6  -815489.97 2853.94   1
  -2  -6   9 7252.49  943.77   1
   2   6  -9 5821.03  942.18   1
  -2  -6  10  186.82   82.69   1
   2   6 -10  187.49   91.34   1
  -2  -6  11   16.65   79.51   1
   2   6 -11    2.73   94.03   1
  -2  -5   1 6012.44 1625.20   1
   2   5  -1 8382.05 1626.09   1
  -2  -5   2 5634.69 1655.19   1
   2   5  -2 9024.67 1658.60   1
  -2  -5   311787.64 1459.87   1
   2   5  -312388.21 2264.01   1
   2   5  -3 8474.78 1458.53   1
  -2  -5   4 5972.94 1055.75   1
  -2  -5   4 6170.49  688.01   1
   2   5  -4 7542.20 1059.87   1
   2   5  -4 3110.47  684.48   1
  -2  -5   5  578.62  192.87   1
  -2  -5   5  601.38  111.03   1
   2   5  -5  808.14  182.01   1
  -2  -5   6 1124.24  226.67   1
  -2  -5   6  991.68  131.18   1
   2   5  -6 1163.64  270.91   1
   2   5  -6  427.62  120.64   1
  -2  -5   7  283.43   69.28   1
   2   5  -7  249.63  178.56   1
   2   5  -7  137.02   59.83   1
  -2  -5   8 3365.73  432.29   1
   2   5  -8 2488.64  428.67   1
  -2  -5   9 2973.38  405.06   1
   2   5  -9 2442.09  404.52   1
  -2  -5  10  878.92  150.28   1
   2   5 -10  760.11  154.07   1
  -2  -5  11   30.88   75.47   1
   2   5 -11    4.79   89.11   1
  -2  -5  12  106.87   72.48   1
   2   5 -12  173.10  100.97   1
  -2  -4   1 1014.81  245.93   1
   2   4  -1 1094.61  244.55   1
  -2  -4   2 6014.73 1567.90   1
   2   4  -2 8250.56 1567.90   1
  -2  -4   3 9217.24 2727.14   1
  -2  -4   312630.00 1760.23   1
   2   4  -314484.08 2728.63   1
   2   4  -312313.66 1757.64   1
  -2  -4   410014.82 2248.69   1
  -2  -4   410502.76 1453.66   1
   2   4  -412632.44 2249.50   1
   2   4  -4 9504.34 1451.66   1
   2   4  -5 7096.90  807.10   1
   2   4  -5 3188.85  526.10   1
  -2  -4   6 5994.48  583.33   1
   2   4  -6 8786.25  901.26   1
  -2  -4   7 5140.18  746.40   1
  -2  -4   8 5426.70  787.48   1
  -2  -4   9 1683.28  239.90   1
   2   4  -9 1340.97  240.29   1
  -2  -4  10 2753.80  401.19   1
   2   4 -10 2576.53  399.96   1
  -2  -4  11 7583.89 1077.26   1
   2   4 -11 7321.63 1077.82   1
  -2  -4  12 4962.23  720.58   1
   2   4 -12 4882.27  722.29   1
  -2  -4  13 1076.72  177.72   1
   2   4 -13  890.15  183.18   1
   2   3  -158861.7513066.81   1
  -2  -3   231075.79 5039.62   1
   2   3  -236994.95 7862.78   1
   2   3  -239064.67 5039.05   1
  -2  -3   316820.03 2548.49   1
   2   3  -317520.26 3961.11   1
   2   3  -318795.68 2546.96   1
  -2  -3   4 5102.47  820.21   1
   2   3  -4 6052.88 1253.89   1
   2   3  -4 6037.98  818.30   1
  -2  -3   515694.43 2237.37   1
   2   3  -518574.53 3469.29   1
   2   3  -515211.50 2234.80   1
  -2  -3   628366.47 3307.65   1
   2   3  -618899.16 3304.32   1
  -2  -3   730633.69 2949.93   1
   2   3  -712664.48 2944.27   1
   2   3  -8 5409.52  784.40   1
  -2  -3   9 1525.44  222.79   1
   2   3  -9 1307.61  224.75   1
  -2  -3  10 2347.39  352.48   1
   2   3 -10 2290.52  351.92   1
  -2  -3  1110199.29 1407.65   1
   2   3 -11 9398.73 1408.51   1
  -2  -3  1214012.23 1928.87   1
   2   3 -1212944.30 1927.57   1
  -2  -3  13 5541.91  740.90   1
   2   3 -13 4635.14  739.58   1
   2   2  -164966.2914421.02   1
  -2  -2   248456.05 6948.10   1
   2   2  -249382.52 6948.99   1
   2   2  -3 6596.22 1468.66   1
   2   2  -3 6859.31 1470.06   1
   2   2  -3 6609.47  955.12   1
  -2  -2   4  325.84   68.30   1
   2   2  -4  358.42   87.23   1
   2   2  -4  434.43   99.66   1
   2   2  -4  365.54   67.81   1
  -2  -2   5  157.23   40.95   1
   2   2  -5  135.73   45.06   1
  -2  -2   614597.62 1856.05   1
   2   2  -611488.90 1854.49   1
  -2  -2   726589.38 3091.10   1
   2   2  -717533.19 3087.51   1
  -2  -2   8 6929.30  755.36   1
   2   2  -8 3746.01  749.72   1
  -2  -2   9  267.46   68.11   1
   2   2  -9  155.65   60.18   1
  -2  -2  10  387.32   84.28   1
   2   2 -10  346.52   80.75   1
  -2  -2  11 1230.73  212.52   1
   2   2 -11 1397.22  215.27   1
  -2  -2  12 6966.85  990.49   1
   2   2 -12 6714.48  989.10   1
  -2  -2  13 3108.57  486.22   1
   2   2 -13 3413.44  487.19   1
   2   2 -14  104.90   81.58   1
  -2  -1   118639.06 4216.45   1
  -2  -1   119521.28 2708.63   1
  -2  -1   119117.38 2708.59   1
   2   1  -119101.12 4215.55   1
   2   1  -118416.10 2708.93   1
  -2  -1   241048.75 5751.93   1
   2   1  -239812.63 5752.67   1
  -2  -1   3 4881.85  740.79   1
   2   1  -3 5471.12  743.19   1
  -2  -1   4 5407.81  761.90   1
   2   1  -4 5044.82 1164.33   1
   2   1  -4 5175.34  760.96   1
  -2  -1   5 3376.12  446.16   1
   2   1  -5 2710.20  444.53   1
  -2  -1   6 1569.78  227.67   1
   2   1  -6 1411.74  227.54   1
  -2  -1   7 8916.50 1201.89   1
   2   1  -7 7790.70 1201.96   1
   2   1  -8 4129.69  602.24   1
  -2  -1   9  136.71   57.83   1
   2   1  -9  101.66   50.21   1
  -2  -1  10  223.75   67.95   1
   2   1 -10   89.15   54.03   1
  -2  -1  11   90.36   52.66   1
   2   1 -11  102.51   52.22   1
  -2  -1  12 1307.77  208.01   1
   2   1 -12 1279.07  212.00   1
  -2  -1  13  822.69  147.93   1
   2   1 -13  876.51  154.61   1
  -2  -1  14  307.31   82.50   1
   2   1 -14  169.60   73.29   1
  -2   0   126055.41 5610.18   1
  -2   0   125322.54 3598.31   1
   2   0  -124669.34 5609.36   1
   2   0  -125201.41 3599.38   1
  -2   0   235518.02 7647.02   1
  -2   0   232397.67 4899.85   1
  -2   0   237193.64 4901.67   1
   2   0  -233441.79 7645.54   1
   2   0  -234200.63 4901.93   1
  -2   0   342565.14 9814.22   1
  -2   0   345984.35 6287.54   1
   2   0  -342807.50 6287.05   1
  -2   0   4 7964.61 1688.24   1
  -2   0   4 8008.62 1095.08   1
   2   0  -4 7361.17 1685.26   1
   2   0  -4 7181.31 1095.76   1
  -2   0   5 6148.68 1321.55   1
  -2   0   5 6699.61  863.06   1
   2   0  -5 5017.27 1317.31   1
   2   0  -5 5379.43  861.80   1
  -2   0   610020.51 1343.69   1
   2   0  -6 8767.47 1342.11   1
  -2   0   713383.39 1745.95   1
   2   0  -711089.50 1744.61   1
   2   0  -8 4723.58  685.98   1
  -2   0   9 8836.74 1112.57   1
   2   0  -9 6624.96 1110.51   1
  -2   0  10 5644.75  643.80   1
   2   0 -10 3340.29  638.45   1
  -2   0  11 6718.47  787.38   1
   2   0 -11 4429.96  780.98   1
  -2   0  12 3345.61  467.35   1
   2   0 -12 2973.61  462.30   1
  -2   0  13  764.94  125.28   1
   2   0 -13  559.67  117.28   1
  -2   0  14  984.03  150.53   1
   2   0 -14  678.83  143.76   1
  -2   1   146335.3610101.51   1
  -2   1   145712.85 6467.95   1
  -2   1   145749.71 6467.87   1
   2  -1  -143210.8710099.02   1
   2  -1  -144532.75 6467.51   1
   2  -1  -146221.85 6468.75   1
  -2   1   233662.49 7526.97   1
  -2   1   235183.41 4823.61   1
  -2   1   233208.32 4823.63   1
   2  -1  -230863.16 7523.45   1
   2  -1  -233565.65 4824.51   1
  -2   1   322878.74 5030.43   1
  -2   1   323412.66 3228.90   1
   2  -1  -324816.86 5027.18   1
   2  -1  -321672.22 3229.52   1
  -2   1   427884.58 5822.04   1
  -2   1   428064.83 3736.34   1
   2  -1  -424093.44 3736.14   1
  -2   1   545990.24 9689.30   1
  -2   1   543939.09 6205.90   1
   2  -1  -537890.04 9686.29   1
   2  -1  -543545.27 6207.97   1
  -2   1   633152.64 6837.92   1
  -2   1   631587.72 4386.27   1
   2  -1  -626701.79 6836.67   1
   2  -1  -630227.80 4387.29   1
  -2   1   714933.55 3188.79   1
  -2   1   715020.23 2056.17   1
   2  -1  -713076.15 3188.08   1
   2  -1  -713910.27 2055.50   1
  -2   1   8 2364.80  343.26   1
   2  -1  -8 2220.42  342.44   1
  -2   1   9 5362.46  708.51   1
   2  -1  -9 4395.42  707.98   1
  -2   1  1014085.02 1730.31   1
   2  -1 -1010084.17 1728.54   1
  -2   1  1121068.66 2361.89   1
   2  -1 -1112606.55 2357.37   1
  -2   1  12 4149.79  507.03   1
   2  -1 -12 2846.49  500.82   1
  -2   1  13  624.12  121.20   1
   2  -1 -13  483.35  109.71   1
  -2   1  14  131.99   72.53   1
   2  -1 -14   86.27   66.85   1
  -2   2   120614.43 5261.95   1
  -2   2   124073.66 3376.42   1
  -2   2   123995.95 3376.28   1
   2  -2  -122101.19 5260.17   1
   2  -2  -122826.13 3375.97   1
   2  -2  -124470.90 3377.17   1
  -2   2   2 4734.90 1047.79   1
  -2   2   2 5071.24  679.74   1
  -2   2   2 5018.63  680.09   1
   2  -2  -2 4998.73 1046.06   1
   2  -2  -2 3947.71  679.70   1
  -2   2   3 2501.36  588.39   1
  -2   2   3 2689.89  383.03   1
  -2   2   3 2705.96  383.50   1
   2  -2  -3 2420.52  583.24   1
   2  -2  -3 2423.26  383.91   1
  -2   2   4 2047.55  445.39   1
  -2   2   4 2115.98  288.69   1
   2  -2  -4 1880.78  437.37   1
   2  -2  -4 1742.43  287.91   1
  -2   2   521917.99 4449.26   1
  -2   2   520560.58 2857.13   1
   2  -2  -520411.56 4447.87   1
   2  -2  -519210.54 2857.80   1
  -2   2   630183.53 6291.73   1
  -2   2   628834.00 4035.19   1
   2  -2  -629356.85 6290.93   1
   2  -2  -627382.74 4035.59   1
  -2   2   7 3242.60  631.02   1
  -2   2   7 2709.17  414.31   1
   2  -2  -7 2622.90  626.16   1
   2  -2  -7 2868.53  415.04   1
  -2   2   8 1010.86  228.57   1
  -2   2   8  949.17  152.22   1
   2  -2  -8 1049.92  225.07   1
   2  -2  -8  880.81  156.40   1
  -2   2   9  498.33   90.50   1
   2  -2  -9  449.89   93.16   1
  -2   2  10 2774.05  393.58   1
   2  -2 -10 2517.16  394.85   1
  -2   2  11 8284.89 1054.49   1
   2  -2 -11 6281.72 1054.02   1
  -2   2  12 3721.19  449.62   1
   2  -2 -12 2355.84  445.11   1
  -2   2  13   17.93   74.64   1
   2  -2 -13   94.08   78.56   1
  -2   2  14  189.18   86.39   1
   2  -2 -14  210.81   77.25   1
  -2   3   117698.17 5911.04   1
  -2   3   128381.18 3792.07   1
  -2   3   128321.01 3792.14   1
   2  -3  -123396.42 5912.45   1
   2  -3  -124396.74 3790.84   1
   2  -3  -126923.26 3792.71   1
  -2   3   2 1373.08  405.25   1
  -2   3   2 1867.28  257.81   1
  -2   3   2 1751.06  257.82   1
   2  -3  -2 1832.71  405.63   1
   2  -3  -2 1546.05  258.12   1
  -2   3   3 6079.78 1274.71   1
  -2   3   3 5884.39  824.64   1
  -2   3   3 5942.40  824.74   1
   2  -3  -3 6588.16 1273.48   1
   2  -3  -3 5190.09  824.93   1
  -2   3   4 3274.67  710.89   1
  -2   3   4 3191.44  458.04   1
  -2   3   4 3365.50  459.00   1
   2  -3  -4 3467.02  703.70   1
   2  -3  -4 2792.61  458.70   1
  -2   3   5 4575.33  887.53   1
  -2   3   5 4257.11  577.87   1
   2  -3  -5 3808.24  883.83   1
   2  -3  -5 3655.79  576.42   1
  -2   3   618526.13 4103.79   1
  -2   3   618808.40 2636.03   1
   2  -3  -618181.29 4102.56   1
   2  -3  -618172.99 2636.56   1
  -2   3   7 5914.94 1092.51   1
  -2   3   7 4976.81  706.12   1
   2  -3  -7 4637.98  706.54   1
  -2   3   8  123.56  145.35   1
  -2   3   8  144.67   50.74   1
   2  -3  -8  126.14  116.14   1
   2  -3  -8  164.93   57.13   1
  -2   3   9 2119.51  440.09   1
  -2   3   9 1901.61  285.11   1
   2  -3  -9 2070.70  431.55   1
   2  -3  -9 1787.19  287.60   1
  -2   3  10  831.22  225.15   1
  -2   3  10  806.93  132.47   1
   2  -3 -10  752.84  135.11   1
  -2   3  11 3630.98  512.51   1
   2  -3 -11 3334.57  513.81   1
  -2   3  12 2138.26  289.55   1
   2  -3 -12 1624.01  287.78   1
  -2   3  13  250.63   86.34   1
   2  -3 -13  110.21   74.56   1
  -2   3  14   52.29   75.79   1
   2  -3 -14   91.17   68.24   1
  -2   4   142120.1311599.49   1
  -2   4   153000.38 7424.74   1
  -2   4   152603.75 7425.22   1
   2  -4  -148843.2911600.57   1
  -2   4   214308.61 4926.11   1
  -2   4   223116.92 3162.58   1
  -2   4   222888.06 3162.76   1
   2  -4  -227730.07 4931.79   1
   2  -4  -220746.49 3162.52   1
  -2   4   3 2992.37  758.35   1
  -2   4   3 3515.00  486.81   1
  -2   4   3 3515.57  487.28   1
   2  -4  -3 4398.58  751.47   1
   2  -4  -3 2869.48  486.72   1
  -2   4   4 3482.29  775.88   1
  -2   4   4 3552.06  499.05   1
  -2   4   4 3296.71  498.49   1
   2  -4  -4 4230.56  767.09   1
   2  -4  -4 3304.11  499.37   1
  -2   4   513802.90 2930.39   1
  -2   4   512881.34 1882.85   1
  -2   4   513906.55 1884.42   1
   2  -4  -513427.61 2928.30   1
   2  -4  -512733.71 1883.89   1
  -2   4   618832.00 2566.84   1
  -2   4   617705.20 2564.89   1
   2  -4  -617610.79 3993.53   1
   2  -4  -617572.72 2565.99   1
  -2   4   715477.46 3255.11   1
  -2   4   715278.93 2092.49   1
   2  -4  -715454.69 3254.32   1
   2  -4  -713787.57 2092.38   1
  -2   4   8 8321.93 1384.61   1
  -2   4   8 5901.79  888.75   1
   2  -4  -8 6959.01 1373.26   1
   2  -4  -8 6051.13  888.52   1
  -2   4   9 8229.90 1288.51   1
  -2   4   9 5642.69  824.18   1
   2  -4  -9 6452.78 1272.89   1
   2  -4  -9 5313.50  824.03   1
  -2   4  10 8823.66 1529.31   1
  -2   4  10 6883.92  984.01   1
   2  -4 -10 8373.28 1525.10   1
   2  -4 -10 6277.86  983.67   1
  -2   4  11 4585.87  949.67   1
  -2   4  11 4199.99  607.45   1
   2  -4 -11 4066.06  607.91   1
  -2   4  12 2822.60  405.20   1
   2  -4 -12 2591.97  405.39   1
  -2   4  13 2250.34  314.33   1
   2  -4 -13 1755.52  305.77   1
  -2   4  14 2553.18  333.41   1
   2  -4 -14 1791.47  325.28   1
  -2   5   123543.36 5193.51   1
  -2   5   125284.06 3328.73   1
  -2   5   122732.29 3328.08   1
   2  -5  -127967.55 5195.76   1
   2  -5  -121384.24 3330.03   1
  -2   5   216096.39 4756.42   1
  -2   5   222089.24 3051.68   1
  -2   5   221578.76 3051.83   1
   2  -5  -224550.79 4761.28   1
   2  -5  -220634.33 3052.15   1
  -2   5   310585.92 4175.93   1
  -2   5   319442.88 2682.72   1
  -2   5   319450.21 2682.44   1
   2  -5  -324132.37 4185.17   1
   2  -5  -317509.55 2682.96   1
  -2   5   417882.28 4403.38   1
  -2   5   420599.65 2824.28   1
  -2   5   419593.43 2823.60   1
   2  -5  -425742.33 4404.51   1
   2  -5  -418727.44 2824.03   1
  -2   5   520761.55 4128.74   1
  -2   5   517778.62 2647.22   1
  -2   5   517988.42 2648.10   1
   2  -5  -523061.29 4128.72   1
   2  -5  -519229.74 2648.38   1
  -2   5   611939.03 2084.07   1
  -2   5   6 9388.29 1334.29   1
  -2   5   6 9463.02 1334.67   1
   2  -5  -610311.67 2071.67   1
   2  -5  -6 8705.01 1334.87   1
  -2   5   7 6154.48 1096.37   1
  -2   5   7 4654.57  689.33   1
  -2   5   7 4567.59  690.16   1
   2  -5  -7 5414.27 1068.91   1
   2  -5  -7 4829.71  690.47   1
  -2   5   8 8893.52 1456.94   1
  -2   5   8 6290.14  932.20   1
   2  -5  -8 7823.40 1450.86   1
   2  -5  -8 6193.82  932.39   1
  -2   5   915898.03 2838.30   1
  -2   5   912098.56 1817.92   1
   2  -5  -918105.25 2833.64   1
   2  -5  -912168.67 1817.96   1
  -2   5  1017045.65 2742.84   1
  -2   5  1011902.74 1755.84   1
   2  -5 -1014110.45 2733.18   1
   2  -5 -1011791.70 1755.26   1
  -2   5  11 5007.32  911.91   1
  -2   5  11 3661.66  576.36   1
   2  -5 -11 4157.38  905.06   1
   2  -5 -11 4040.43  576.75   1
  -2   5  12  603.80  364.48   1
  -2   5  12  563.20  106.31   1
   2  -5 -12  511.50  109.52   1
  -2   5  13  506.50  106.87   1
   2  -5 -13  426.61  102.15   1
  -2   6   1 1147.45  273.87   1
  -2   6   1  682.72  122.10   1
  -2   6   1  796.16  121.26   1
   2  -6  -1  712.65  250.40   1
   2  -6  -1  620.37  123.44   1
  -2   6   2  321.05  232.03   1
  -2   6   2  364.51   70.31   1
  -2   6   2  297.33   70.34   1
   2  -6  -2  281.15  187.50   1
   2  -6  -2  270.76   77.05   1
  -2   6   3  875.97  426.14   1
  -2   6   3 1756.39  257.08   1
  -2   6   3 1614.83  255.13   1
   2  -6  -3 2314.95  419.86   1
   2  -6  -3 1676.02  257.10   1
  -2   6   4 8469.81 2474.07   1
  -2   6   411390.42 1590.32   1
  -2   6   411394.64 1590.49   1
   2  -6  -414799.56 2478.20   1
   2  -6  -410265.06 1590.76   1
  -2   6   511558.09 2337.30   1
  -2   6   510647.27 1495.14   1
  -2   6   510607.78 1495.81   1
   2  -6  -512554.14 2326.40   1
   2  -6  -5 9712.03 1495.19   1
  -2   6   6 1694.12  350.19   1
  -2   6   6  879.01  145.63   1
  -2   6   6  907.02  146.81   1
   2  -6  -6  784.03  242.79   1
   2  -6  -6  886.52  146.99   1
  -2   6   7 1828.78  381.78   1
  -2   6   7 1136.73  180.21   1
  -2   6   7 1156.09  181.70   1
   2  -6  -7 1270.60  314.16   1
   2  -6  -7 1078.89  182.57   1
  -2   6   8  558.51  284.21   1
  -2   6   8  425.36   80.25   1
  -2   6   8  347.19   83.59   1
   2  -6  -8  431.71  212.10   1
   2  -6  -8  373.81   83.49   1
  -2   6   9 4169.26  739.12   1
  -2   6   9 3197.43  452.53   1
  -2   6   9 2845.79  452.73   1
   2  -6  -9 4158.49  731.60   1
   2  -6  -9 2918.52  453.48   1
  -2   6  1010363.80 1682.68   1
  -2   6  10 7526.73 1052.52   1
  -2   6  10 6910.60 1052.68   1
   2  -6 -10 7560.61 1634.91   1
   2  -6 -10 7115.32 1053.14   1
  -2   6  11 1486.67  472.71   1
  -2   6  11 1227.54  196.55   1
  -2   6  11 1170.64  199.30   1
   2  -6 -11 1463.46  405.15   1
   2  -6 -11 1148.32  195.54   1
  -2   6  12  469.16  375.49   1
  -2   6  12  332.02   83.64   1
   2  -6 -12  300.66  347.45   1
   2  -6 -12  372.14   89.25   1
  -2   6  13  479.81  433.30   1
  -2   6  13  391.84   97.03   1
   2  -6 -13  377.45   95.03   1
  -2   7   1  352.72  249.90   1
  -2   7   1  227.78   59.98   1
  -2   7   1  165.43   55.67   1
   2  -7  -1  303.38  196.12   1
   2  -7  -1  136.20   59.00   1
  -2   7   2 4592.52  879.15   1
  -2   7   2 3854.56  549.22   1
  -2   7   2 3888.50  550.63   1
   2  -7  -2 4466.20  861.25   1
   2  -7  -2 3361.40  551.13   1
  -2   7   3  325.83  255.45   1
  -2   7   3  388.94   78.02   1
  -2   7   3  354.67   77.77   1
   2  -7  -3  613.64  205.42   1
   2  -7  -3  391.47   85.21   1
  -2   7   4 3495.49 1287.40   1
  -2   7   4 6001.55  826.07   1
  -2   7   4 5724.10  826.10   1
   2  -7  -4 7692.47 1288.05   1
   2  -7  -4 5307.81  826.49   1
  -2   7   511619.90 2379.06   1
  -2   7   510401.03 1518.44   1
  -2   7   510610.72 1518.86   1
   2  -7  -514182.95 2366.00   1
   2  -7  -510217.21 1519.40   1
  -2   7   6 2951.64  588.02   1
  -2   7   6 2484.07  350.43   1
  -2   7   6 2345.85  350.53   1
   2  -7  -6 2616.39  547.84   1
   2  -7  -6 2143.77  350.40   1
  -2   7   7 1783.77  469.72   1
  -2   7   7 1088.12  184.26   1
  -2   7   7 1202.08  186.17   1
   2  -7  -7 1685.17  332.88   1
   2  -7  -7 1114.79  187.34   1
  -2   7   8 1330.03  406.34   1
  -2   7   8  642.56  111.75   1
  -2   7   8  609.69  113.04   1
   2  -7  -8  835.63  265.19   1
   2  -7  -8  617.77  114.79   1
  -2   7   9 2350.84  501.55   1
  -2   7   9 1482.01  229.49   1
  -2   7   9 1340.28  229.87   1
   2  -7  -9 2194.21  408.35   1
   2  -7  -9 1479.62  231.41   1
  -2   7  10 4684.66  907.40   1
  -2   7  10 3708.65  519.88   1
  -2   7  10 3774.22  521.15   1
   2  -7 -10 4145.33  830.43   1
   2  -7 -10 2924.06  519.59   1
  -2   7  11 2377.81  700.24   1
  -2   7  11 2233.50  343.31   1
  -2   7  11 2406.27  344.24   1
   2  -7 -11 2625.26  615.85   1
   2  -7 -11 2132.17  344.27   1
  -2   7  12  154.82  487.64   1
  -2   7  12   82.94   69.64   1
  -2   7  12  118.51   72.70   1
   2  -7 -12  470.78  352.82   1
   2  -7 -12  137.31   73.54   1
  -2   8   112941.69 2209.51   1
  -2   8   110471.27 1411.87   1
   2  -8  -1 9418.90 2196.65   1
   2  -8  -1 8763.29 1414.07   1
  -2   8   2 2187.16  441.54   1
  -2   8   2 1512.11  238.12   1
  -2   8   2 1503.54  236.57   1
   2  -8  -2 1675.05  394.64   1
  -2   8   3 1345.51  367.91   1
  -2   8   3 1132.81  176.24   1
  -2   8   3 1107.85  176.83   1
   2  -8  -3 1176.42  333.25   1
   2  -8  -3 1066.80  179.84   1
  -2   8   4 6555.28 1955.54   1
  -2   8   4 9103.83 1253.29   1
  -2   8   4 8070.99 1253.06   1
   2  -8  -411983.73 1955.02   1
  -2   8   512911.50 3263.00   1
  -2   8   515520.67 2090.75   1
  -2   8   513635.56 2089.97   1
   2  -8  -519505.49 3260.43   1
   2  -8  -514094.36 2090.99   1
  -2   8   612849.60 2162.43   1
  -2   8   610296.87 1375.91   1
   2  -8  -612366.26 2142.78   1
   2  -8  -6 8188.23 1376.24   1
  -2   8   7 5382.30  798.82   1
  -2   8   7 2821.83  461.83   1
  -2   8   7 3040.22  461.54   1
   2  -8  -7 5338.45  746.77   1
   2  -8  -7 3107.51  463.25   1
  -2   8   8 2622.27  599.55   1
  -2   8   8 1977.05  282.47   1
  -2   8   8 1619.81  282.02   1
   2  -8  -8 3155.52  501.23   1
   2  -8  -8 1783.63  282.58   1
  -2   8   9 5250.24  958.57   1
  -2   8   9 3732.23  557.29   1
  -2   8   9 3637.64  557.30   1
   2  -8  -9 3913.09  558.71   1
  -2   8  10 6192.94 1277.56   1
  -2   8  10 5326.56  785.53   1
  -2   8  10 5426.54  786.75   1
   2  -8 -10 5963.29 1243.75   1
   2  -8 -10 5322.48  786.58   1
  -2   8  11 4020.87  815.02   1
  -2   8  11 2959.70  429.69   1
  -2   8  11 2591.74  429.99   1
   2  -8 -11 3086.91  752.66   1
   2  -8 -11 2962.98  431.76   1
  -2   9   116049.63 2381.76   1
  -2   9   110989.87 1511.43   1
  -2   9   1 9501.04 1511.15   1
   2  -9  -110079.36 2353.48   1
   2  -9  -110908.70 1516.19   1
  -2   9   2 6845.71 1111.56   1
  -2   9   2 5056.16  693.74   1
  -2   9   2 4145.27  692.55   1
   2  -9  -2 5251.19 1082.90   1
   2  -9  -2 5015.55  698.90   1
  -2   9   3 7016.08 1184.97   1
  -2   9   3 5263.13  740.64   1
  -2   9   3 4842.37  741.98   1
   2  -9  -3 5824.56 1153.99   1
   2  -9  -3 4951.52  746.06   1
  -2   9   4 6777.35 1407.66   1
  -2   9   4 6637.04  890.67   1
  -2   9   4 5788.48  890.95   1
   2  -9  -4 7133.36 1386.10   1
   2  -9  -4 5802.09  892.65   1
  -2   9   5 5195.99 1411.34   1
  -2   9   5 6620.59  897.55   1
  -2   9   5 5725.21  895.85   1
   2  -9  -5 7244.67 1394.68   1
  -2   9   6 3771.95  846.10   1
  -2   9   6 3704.65  518.04   1
  -2   9   6 3265.94  517.61   1
   2  -9  -6 4310.38  810.47   1
   2  -9  -6 3506.20  522.79   1
  -2   9   7 4344.87  827.97   1
  -2   9   7 3170.00  447.73   1
  -2   9   7 2685.41  446.28   1
   2  -9  -7 4441.85  734.29   1
   2  -9  -7 2925.06  446.97   1
  -2   9   8 7090.40 1290.63   1
  -2   9   8 5885.38  793.37   1
  -2   9   8 4762.29  790.87   1
   2  -9  -8 7994.35 1259.87   1
   2  -9  -8 5295.54  793.50   1
  -2   9   9 4824.35  630.49   1
  -2   9   9 3573.20  625.75   1
   2  -9  -9 5927.66 1001.49   1
   2  -9  -9 4184.14  626.60   1
  -2   9  10 2155.10  611.54   1
  -2   9  10 1664.42  249.89   1
   2  -9 -10 1792.34  480.02   1
   2  -9 -10 1372.98  249.14   1
  -2  10   1  410.93  331.53   1
  -2  10   1  303.01   82.64   1
  -2  10   1  148.52   81.64   1
   2 -10  -1  333.56  262.14   1
   2 -10  -1  258.78  109.76   1
  -2  10   2 1515.05  385.10   1
  -2  10   2  785.91  127.52   1
  -2  10   2  625.00  135.98   1
   2 -10  -2  622.27  287.93   1
   2 -10  -2  653.79  136.10   1
  -2  10   3 4992.46  781.56   1
  -2  10   3 3105.19  449.15   1
  -2  10   3 2872.02  451.70   1
   2 -10  -3 3611.17  717.05   1
   2 -10  -3 2813.68  456.38   1
  -2  10   4 1993.70  538.19   1
  -2  10   4 1301.17  215.96   1
  -2  10   4 1355.89  223.78   1
   2 -10  -4 1655.71  386.78   1
  -2  10   5  210.90  439.30   1
  -2  10   5  124.51   74.12   1
   2 -10  -5  194.22  231.48   1
   2 -10  -5   98.34   84.79   1
  -2  10   6  633.13  425.66   1
  -2  10   6  424.22   94.49   1
  -2  10   6  388.56   98.80   1
   2 -10  -6  754.61  298.87   1
  -2  10   7  -97.22  424.24   1
  -2  10   7   29.11   83.73   1
  -2  10   7   34.87   70.34   1
   2 -10  -7   23.97  292.29   1
   2 -10  -7   -2.65   60.92   1
  -2  10   8 1297.28  498.90   1
  -2  10   8 1211.57  174.57   1
  -2  10   8  761.40  168.00   1
   2 -10  -8 1745.10  433.47   1
   2 -10  -8  927.12  175.85   1
  -2  11   1  943.48  353.47   1
  -2  11   1  351.03   96.00   1
  -2  11   1  200.01   87.44   1
   2 -11  -1  364.35  257.81   1
   2 -11  -1  357.99  120.31   1
  -2  11   2   89.56  353.51   1
  -2  11   2  -41.23   61.81   1
  -2  11   2   77.65   86.76   1
   2 -11  -2  150.77  244.33   1
   2 -11  -2   60.58   89.57   1
  -2  11   3 3518.95  626.07   1
  -2  11   3 1527.00  279.80   1
   2 -11  -3 2592.85  484.92   1
   2 -11  -3 1888.77  290.74   1
  -2  11   4 3459.59  700.26   1
  -2  11   4 3082.47  384.55   1
  -2  11   4 1817.13  378.98   1
   2 -11  -4 3335.61  632.77   1
   2 -11  -4 2640.73  389.16   1
  -2  11   5  495.93  403.89   1
  -1 -12   1 1711.30  472.95   1
   1  12  -1 2042.43  588.67   1
  -1 -12   2  -81.14  253.62   1
   1  12  -2  476.80  472.86   1
  -1 -11   1 7735.57 2061.96   1
   1  11  -114331.99 2111.35   1
  -1 -11   2 3536.11  878.20   1
   1  11  -2 4527.16  983.45   1
  -1 -11   3   20.21  237.18   1
   1  11  -3  220.22  418.46   1
  -1 -11   4  177.13  311.55   1
   1  11  -4  896.66  467.24   1
  -1 -11   5  156.07  279.73   1
   1  11  -5  375.57  527.26   1
  -1 -10   1  163.02  170.62   1
   1  10  -1  635.20  373.60   1
   1  10  -1  161.01   48.93   1
   1  10  -1  108.95   53.18   1
  -1 -10   2  240.57  173.90   1
   1  10  -2  246.39  322.39   1
  -1 -10   3  346.37  236.89   1
   1  10  -3  527.20  446.15   1
  -1 -10   4  565.60  261.41   1
   1  10  -4  733.40  490.14   1
  -1 -10   5  459.93  255.62   1
   1  10  -5  739.32  429.37   1
  -1 -10   6  406.77  260.81   1
  -1 -10   6   43.89   61.64   1
   1  10  -6  851.93  505.09   1
   1  10  -6   55.12   63.75   1
  -1 -10   7  221.83  318.87   1
   1  10  -7  470.44  498.82   1
  -1  -9   1 1654.52  349.96   1
   1   9  -1 2041.74  396.28   1
   1   9  -1 1566.32  212.92   1
   1   9  -1 1148.94  211.18   1
  -1  -9   2 3297.98  558.66   1
   1   9  -2 4620.86  608.43   1
   1   9  -2 2179.34  353.67   1
   1   9  -2 2253.57  352.17   1
  -1  -9   3 1106.30  265.88   1
   1   9  -3 1857.28  379.72   1
   1   9  -3  828.06  155.24   1
   1   9  -3  941.13  151.98   1
  -1  -9   4   26.88  210.45   1
  -1  -9   4   21.41   45.05   1
   1   9  -4  -76.64  453.88   1
   1   9  -4   61.15   41.66   1
  -1  -9   5  -69.23  202.95   1
  -1  -9   5   12.34   47.50   1
   1   9  -5 -103.65  338.29   1
   1   9  -5   12.12   50.42   1
  -1  -9   6 1034.74  292.78   1
  -1  -9   6  601.99  112.84   1
   1   9  -6 1736.23  490.58   1
   1   9  -6  442.22  108.50   1
   1   9  -6  575.91  112.88   1
  -1  -9   7 3940.77  636.44   1
  -1  -9   7 2393.36  367.23   1
   1   9  -7 4851.03  709.69   1
   1   9  -7 2491.79  364.97   1
   1   9  -7 1910.43  361.03   1
  -1  -9   8 1208.59  348.45   1
  -1  -9   8  811.61  144.23   1
   1   9  -8 1910.69  515.84   1
   1   9  -8  657.69  139.58   1
   1   9  -8  360.36  128.87   1
  -1  -9   9  -68.73  368.85   1
  -1  -8   1   62.66  149.74   1
   1   8  -1   48.91  230.51   1
   1   8  -1   33.01   35.46   1
   1   8  -1   63.54   33.77   1
  -1  -8   2 3554.73  803.77   1
   1   8  -2 4569.47  818.02   1
   1   8  -2 3434.99  512.03   1
  -1  -8   3  531.04  196.47   1
  -1  -8   3  521.43   95.91   1
   1   8  -3  789.67  270.35   1
   1   8  -3  493.21  100.90   1
   1   8  -3  602.47   98.13   1
  -1  -8   4 3961.59  720.55   1
  -1  -8   4 2925.93  446.02   1
   1   8  -4 4736.08  733.43   1
   1   8  -4 2910.33  445.71   1
  -1  -8   5 9654.08 1641.22   1
   1   8  -511584.13 1678.36   1
   1   8  -5 6549.28 1048.82   1
  -1  -8   6 1745.60  372.78   1
  -1  -8   6 1603.42  225.72   1
   1   8  -6 2756.48  524.87   1
   1   8  -6 1327.01  224.72   1
   1   8  -6 1232.19  225.30   1
  -1  -8   7  777.98  243.03   1
  -1  -8   7  509.72  109.10   1
   1   8  -7  863.60  390.43   1
   1   8  -7  522.05  107.26   1
   1   8  -7  625.06  115.12   1
  -1  -8   8 1646.18  394.14   1
  -1  -8   8  881.35  181.07   1
   1   8  -8 1634.21  467.86   1
   1   8  -8 1053.77  179.02   1
  -1  -8   9  225.91  298.11   1
  -1  -8   9  118.70  100.50   1
   1   8  -9  298.91  465.31   1
   1   8  -9  197.77   96.54   1
   1   8  -9  289.55  116.03   1
  -1  -8  10 1853.48  604.00   1
  -1  -8  10 2177.99  315.36   1
   1   8 -10  997.49  699.30   1
   1   8 -10 1662.88  300.08   1
   1   8 -10 2161.65  314.31   1
  -1  -7   1 4822.68 1481.42   1
   1   7  -1 8380.01 1493.23   1
   1   7  -1 6786.43  957.97   1
  -1  -7   2  903.58  272.31   1
  -1  -7   2 1132.67  167.92   1
   1   7  -2 1789.41  347.15   1
   1   7  -2  979.07  168.90   1
   1   7  -2 1086.12  168.14   1
  -1  -7   3 1630.48  396.03   1
  -1  -7   3 1671.68  253.19   1
   1   7  -3 1852.26  421.21   1
  -1  -7   4 2270.67  498.56   1
   1   7  -4 4311.93  564.14   1
   1   7  -4 1935.90  322.81   1
   1   7  -4 2175.53  321.09   1
  -1  -7   510427.17 2198.57   1
   1   7  -514564.84 2227.27   1
   1   7  -5 9319.40 1415.90   1
  -1  -7   6 5726.87 1095.19   1
  -1  -7   6 4929.07  705.29   1
   1   7  -6 7524.43 1134.13   1
   1   7  -6 4642.97  703.90   1
   1   7  -6 4467.97  706.07   1
  -1  -7   7  127.50  168.31   1
  -1  -7   7   79.66   60.15   1
   1   7  -7  241.33  309.91   1
   1   7  -7   38.47   50.56   1
   1   7  -7  252.79   64.26   1
  -1  -7   8  805.07  291.45   1
   1   7  -8 1245.49  361.93   1
   1   7  -8  659.51  129.32   1
   1   7  -8  588.15  135.27   1
  -1  -7   9  125.44  239.86   1
  -1  -7   9   26.19   73.58   1
   1   7  -9   18.88   82.23   1
  -1  -7  10  692.83  319.02   1
   1   7 -10  840.18  162.49   1
   1   7 -10  922.34  168.01   1
  -1  -7  11  862.76  151.64   1
   1   7 -11  602.48  144.53   1
   1   7 -11  758.00  160.27   1
  -1  -6   1  208.02  120.11   1
  -1  -6   1  384.55   68.08   1
   1   6  -1  521.75  154.98   1
   1   6  -1  406.54   68.07   1
   1   6  -1  382.90   67.78   1
  -1  -6   2 2482.26  722.07   1
  -1  -6   2 3261.24  472.24   1
   1   6  -2 4107.43  733.01   1
   1   6  -2 3122.14  473.84   1
   1   6  -2 3357.93  472.54   1
  -1  -6   3 6181.99 1591.24   1
   1   6  -310400.15 1602.79   1
   1   6  -3 6910.73 1033.46   1
   1   6  -3 7206.58 1029.95   1
  -1  -6   4 3697.06  981.04   1
  -1  -6   4 4758.81  638.87   1
   1   6  -4 4797.26  988.12   1
   1   6  -4 4056.27  640.11   1
  -1  -6   5  -23.13  122.08   1
  -1  -6   5    6.26   38.17   1
   1   6  -5   25.87  188.91   1
   1   6  -5   -2.37   43.79   1
  -1  -6   6  108.57  137.19   1
  -1  -6   6    0.00   43.34   1
   1   6  -6   77.17  221.70   1
   1   6  -6    0.52   45.24   1
   1   6  -6  -18.67   50.99   1
  -1  -6   7  411.80  173.39   1
  -1  -6   7  547.31   98.08   1
   1   6  -7  708.46  232.52   1
   1   6  -7  480.65   93.98   1
   1   6  -7  431.63   99.20   1
  -1  -6   8  886.51  266.56   1
  -1  -6   8 1066.62  163.22   1
   1   6  -8 1239.76  336.06   1
   1   6  -8  910.85  166.80   1
   1   6  -8  790.69  165.06   1
  -1  -6   9  554.67  227.22   1
  -1  -6   9  644.84  114.65   1
   1   6  -9  553.62  259.06   1
   1   6  -9  556.75  121.41   1
   1   6  -9  568.86  117.27   1
  -1  -6  10  926.68  172.04   1
   1   6 -10 1020.90  174.33   1
  -1  -6  11  977.00  168.79   1
   1   6 -11  878.19  163.08   1
  -1  -6  12  211.08   78.88   1
   1   6 -12  122.61   77.40   1
   1   6 -12  237.67   88.93   1
  -1  -5   1 2554.19 1272.16   1
  -1  -5   1 5971.35  827.11   1
   1   5  -1 7113.91 1279.16   1
   1   5  -1 5601.43  827.89   1
   1   5  -1 5996.96  826.94   1
  -1  -5   2  868.49  308.37   1
  -1  -5   2 1410.73  207.20   1
   1   5  -2 1877.13  320.99   1
   1   5  -2 1319.48  208.86   1
   1   5  -2 1382.88  207.15   1
  -1  -5   3  604.85  185.69   1
  -1  -5   3  788.79  120.14   1
   1   5  -3  861.71  202.95   1
   1   5  -3  637.71  123.99   1
   1   5  -3  800.91  121.91   1
  -1  -5   4  122.76  108.35   1
  -1  -5   4  177.79   42.89   1
   1   5  -4  167.35   44.72   1
   1   5  -4  165.54   44.74   1
  -1  -5   5 3409.77  699.75   1
  -1  -5   5 3217.77  459.29   1
   1   5  -5 2972.89  459.34   1
  -1  -5   6 4722.04 1249.54   1
  -1  -5   6 5518.02  813.38   1
   1   5  -6 8015.74 1264.44   1
   1   5  -6 5666.03  813.33   1
  -1  -5   7 1853.93  488.80   1
  -1  -5   7 2103.56  324.50   1
   1   5  -7 2973.01  508.81   1
   1   5  -7 2158.59  323.32   1
  -1  -5   8   44.97  141.30   1
  -1  -5   8  113.22   63.87   1
   1   5  -8  136.72  174.44   1
   1   5  -8   43.57   68.80   1
  -1  -5   9  688.95  131.01   1
   1   5  -9  698.13  133.26   1
  -1  -5  10  230.52   82.24   1
   1   5 -10  216.42   90.82   1
  -1  -5  11 2269.22  353.05   1
   1   5 -11 2383.30  356.63   1
  -1  -5  12 1856.98  251.50   1
   1   5 -12 1337.38  255.67   1
  -1  -4   1  667.77  202.40   1
   1   4  -1 1092.24  209.71   1
  -1  -4   2   51.98   87.95   1
  -1  -4   2  263.39   50.15   1
   1   4  -2  406.35  122.77   1
   1   4  -2  258.63   52.09   1
  -1  -4   3 5862.91 1944.53   1
  -1  -4   3 9650.37 1260.23   1
   1   4  -310593.91 1948.16   1
   1   4  -3 8069.14 1261.20   1
  -1  -4   414124.37 3841.00   1
  -1  -4   417701.94 2472.08   1
   1   4  -419913.39 3841.74   1
  -1  -4   5 1109.69  278.69   1
  -1  -4   5 1213.70  191.04   1
   1   4  -5 1763.56  303.23   1
   1   4  -5 1220.42  191.34   1
  -1  -4   6 1210.00  327.75   1
  -1  -4   6 1446.75  220.54   1
   1   4  -6 1791.35  340.31   1
  -1  -4   7 2218.72  452.11   1
  -1  -4   7 1869.40  300.18   1
   1   4  -7 2574.57  462.15   1
  -1  -4   8 4850.49  635.05   1
   1   4  -8 4526.66  966.76   1
   1   4  -8 3861.21  632.08   1
  -1  -4   912190.42 1688.70   1
   1   4  -911403.24 1687.70   1
  -1  -4  10 4889.48  662.27   1
   1   4 -10 4218.30  663.07   1
  -1  -4  11   96.42   65.01   1
   1   4 -11  159.19   72.74   1
  -1  -4  12 1287.46  189.94   1
   1   4 -12  950.06  191.98   1
  -1  -4  13   35.40   62.65   1
   1   4 -13   -9.37   87.19   1
  -1  -3   1 5302.40 1396.06   1
   1   3  -1 7291.20 1397.44   1
  -1  -3   2 2341.10  792.58   1
  -1  -3   2 3863.53  523.58   1
  -1  -3   3 5242.81 1614.31   1
  -1  -3   3 7922.40 1049.77   1
   1   3  -310686.33 1615.97   1
   1   3  -3 6624.52 1049.47   1
  -1  -3   417117.58 5733.76   1
  -1  -3   427681.34 3682.79   1
   1   3  -431485.06 5732.58   1
   1   3  -425668.87 3682.35   1
  -1  -3   5 7743.65 2226.85   1
  -1  -3   510699.62 1442.30   1
   1   3  -513313.96 2226.94   1
   1   3  -5 9597.11 1441.52   1
  -1  -3   7 3105.17  460.84   1
   1   3  -7 3153.34  460.50   1
  -1  -3   8   49.98   41.43   1
   1   3  -8   48.79   37.37   1
  -1  -3   9 5299.44  753.50   1
   1   3  -9 5088.66  752.96   1
   1   3 -10 4997.85  727.02   1
  -1  -3  11   28.75   59.33   1
   1   3 -11   36.85   67.30   1
  -1  -3  12  482.30  107.12   1
   1   3 -12  420.46  112.39   1
  -1  -3  13  107.31   78.58   1
   1   3 -13   59.12   73.44   1
  -1  -3  14   84.63   88.69   1
   1   3 -14   70.57   89.09   1
  -1  -2   1 9238.28 1905.92   1
  -1  -2   1 7062.59 1237.89   1
   1   2  -1 9035.32 1905.99   1
   1   2  -1 9384.13 1233.45   1
  -1  -2   244122.34 9435.34   1
   1   2  -243058.93 9436.32   1
   1   2  -242106.46 6046.05   1
  -1  -2   3  769.97  135.70   1
  -1  -2   3  626.18  101.32   1
   1   2  -3  718.55  133.78   1
   1   2  -3  482.48   98.29   1
  -1  -2   4   10.67   31.05   1
   1   2  -4   33.63   67.64   1
   1   2  -4    5.94   27.75   1
  -1  -2   5  165.80   48.44   1
   1   2  -5  118.94   43.13   1
  -1  -2   6 4732.90  571.50   1
   1   2  -6 3284.77  567.23   1
  -1  -2   7 5270.01  693.04   1
   1   2  -7 4325.59  690.55   1
  -1  -2   8 3881.83  541.80   1
   1   2  -8 3531.25  540.05   1
  -1  -2   9  891.36  147.93   1
   1   2  -9  898.19  149.38   1
  -1  -2  10  592.25  103.34   1
   1   2 -10  529.63  110.68   1
  -1  -2  11  668.32  118.54   1
   1   2 -11  658.31  118.63   1
  -1  -2  12 1182.55  196.47   1
   1   2 -12 1146.66  192.40   1
  -1  -2  13  158.80   74.44   1
   1   2 -13  227.90   81.84   1
  -1  -2  14  287.00   82.69   1
   1   2 -14  262.44   87.17   1
  -1  -1   1 7132.29 1031.32   1
   1   1  -1 7233.84 1031.09   1
  -1  -1   2 9577.47 1371.40   1
   1   1  -2 9564.66 2118.66   1
  -1  -1   3 6110.60  830.23   1
   1   1  -3 5437.88  829.14   1
  -1  -1   4 1565.07  218.64   1
   1   1  -4 1319.43  218.81   1
  -1  -1   5 2470.26  325.19   1
   1   1  -5 1906.50  323.67   1
  -1  -1   6 1374.85  182.93   1
   1   1  -6  946.73  179.14   1
  -1  -1   7   70.39   45.18   1
   1   1  -7   66.52   39.98   1
  -1  -1   8  133.40   51.14   1
   1   1  -8   77.97   44.73   1
  -1  -1   9  331.64   69.88   1
   1   1  -9  267.79   79.52   1
  -1  -1  10 3732.01  529.51   1
   1   1 -10 3490.88  527.19   1
  -1  -1  11 2251.08  343.09   1
   1   1 -11 2287.37  340.73   1
  -1  -1  12  394.08   87.91   1
   1   1 -12  449.67   90.05   1
  -1  -1  13 1345.26  226.26   1
   1   1 -13 1420.27  230.77   1
  -1  -1  14   94.91   66.92   1
   1   1 -14   70.27   90.34   1
  -1   0   1  996.19  230.22   1
  -1   0   1 1054.05  156.20   1
   1   0  -1 1000.79  232.84   1
   1   0  -1  976.29  155.77   1
  -1   0   231652.68 7276.08   1
  -1   0   233927.18 4666.19   1
   1   0  -225625.44 7274.08   1
  -1   0   331256.13 4167.48   1
   1   0  -329513.92 6487.24   1
   1   0  -327298.07 4167.32   1
  -1   0   4 3763.91  506.23   1
   1   0  -4 3147.30  505.73   1
  -1   0   5 4583.14  613.22   1
   1   0  -5 3871.59  612.35   1
  -1   0   6   10.07   29.62   1
   1   0  -6   50.71   35.18   1
  -1   0   7 9236.39 1112.16   1
   1   0  -7 6387.41 1110.00   1
  -1   0   817594.21 1990.23   1
   1   0  -811051.44 1985.27   1
  -1   0   9 4772.35  599.34   1
   1   0  -9 3560.35  594.59   1
  -1   0  10  393.25   83.46   1
   1   0 -10  347.24   79.68   1
  -1   0  11 1080.96  163.54   1
   1   0 -11  896.13  162.13   1
  -1   0  12  754.39  132.57   1
   1   0 -12  769.66  133.38   1
  -1   0  13 4912.44  722.88   1
   1   0 -13 4998.43  723.13   1
  -1   0  14 3230.99  491.20   1
   1   0 -14 3353.95  489.52   1
  -1   0  15    9.72   64.87   1
   1   0 -15   63.45   72.39   1
  -1   1   1 2286.83  559.51   1
  -1   1   1 2634.37  367.79   1
  -1   1   1 2471.52  367.95   1
   1  -1  -1 2385.41  556.65   1
   1  -1  -1 2446.17  368.54   1
  -1   1   218521.74 4713.45   1
  -1   1   222174.21 3029.45   1
   1  -1  -220104.86 4713.33   1
   1  -1  -220654.79 3030.04   1
  -1   1   342182.20 9062.55   1
  -1   1   342815.57 5808.12   1
   1  -1  -337050.59 9063.21   1
   1  -1  -339184.95 5808.00   1
  -1   1   4 2665.96  569.86   1
  -1   1   4 2687.39  380.26   1
   1  -1  -4 2423.07  566.88   1
   1  -1  -4 2478.53  379.66   1
  -1   1   5 3134.21  630.65   1
  -1   1   5 3126.69  420.91   1
   1  -1  -5 2428.28  628.32   1
   1  -1  -5 2631.06  420.45   1
  -1   1   6 9019.48 1182.16   1
   1  -1  -6 7436.34 1181.12   1
  -1   1   7 1165.20  166.27   1
   1  -1  -7  937.18  169.18   1
  -1   1   811256.96 1521.25   1
   1  -1  -8 9874.65 1522.39   1
  -1   1   9 5589.25  723.59   1
   1  -1  -9 4357.53  722.13   1
  -1   1  10  902.53  139.26   1
   1  -1 -10  673.55  134.12   1
  -1   1  11 2196.19  312.30   1
   1  -1 -11 1882.52  306.25   1
  -1   1  12  223.51   81.24   1
   1  -1 -12  321.00   79.74   1
  -1   1  13 1046.50  182.98   1
   1  -1 -13 1148.97  179.12   1
  -1   1  14  758.35  152.85   1
   1  -1 -14  848.20  146.28   1
  -1   1  15   20.26   76.08   1
   1  -1 -15  -26.79   66.51   1
  -1   2   129743.2210827.32   1
  -1   2   152409.18 6935.07   1
   1  -2  -147137.7710829.39   1
   1  -2  -146861.24 6935.26   1
  -1   2   2  772.14  321.18   1
  -1   2   2 1382.99  211.22   1
  -1   2   2 1639.28  212.29   1
   1  -2  -2 1188.92  317.16   1
   1  -2  -2 1232.81  211.32   1
  -1   2   3 2896.82  906.33   1
  -1   2   3 4584.99  594.15   1
   1  -2  -3 4281.00  905.99   1
   1  -2  -3 3658.56  593.70   1
  -1   2   4  441.35  142.71   1
  -1   2   4  436.73   77.24   1
   1  -2  -4  434.24  112.94   1
   1  -2  -4  367.03   79.20   1
  -1   2   514205.98 3277.86   1
  -1   2   516546.32 2113.42   1
   1  -2  -510320.82 3279.76   1
   1  -2  -513996.84 2112.77   1
  -1   2   616612.78 3444.50   1
  -1   2   616787.06 2219.41   1
   1  -2  -615742.04 3446.17   1
   1  -2  -614247.95 2218.21   1
  -1   2   7 8137.39 1497.17   1
  -1   2   7 7383.39  974.51   1
   1  -2  -7 7442.68 1496.08   1
   1  -2  -7 5900.02  972.93   1
  -1   2   8  150.48  106.37   1
  -1   2   8  123.83   52.92   1
   1  -2  -8  138.44   51.63   1
  -1   2   9   87.86   43.19   1
   1  -2  -9   49.98   48.21   1
  -1   2  10 2350.03  320.67   1
   1  -2 -10 1894.79  317.51   1
  -1   2  11 1883.15  255.00   1
   1  -2 -11 1373.22  245.79   1
  -1   2  12 1347.06  192.13   1
   1  -2 -12 1035.09  188.79   1
  -1   2  13  577.36  112.97   1
   1  -2 -13  583.06  113.11   1
  -1   2  14  829.13  144.93   1
   1  -2 -14  730.17  139.20   1
  -1   2  15  469.67   96.49   1
   1  -2 -15  303.06   89.83   1
  -1   3   114654.61 3176.31   1
  -1   3   114534.13 2043.87   1
  -1   3   114377.13 2043.99   1
   1  -3  -119032.95 3178.63   1
   1  -3  -113497.21 2044.45   1
  -1   3   2  930.80  283.16   1
  -1   3   2 1100.19  158.82   1
  -1   3   2 1074.05  160.63   1
   1  -3  -2 1142.51  248.49   1
   1  -3  -2  869.37  159.84   1
  -1   3   3  426.05  250.77   1
  -1   3   3 1039.62  152.70   1
   1  -3  -3 1154.70  235.85   1
   1  -3  -3  897.69  151.95   1
  -1   3   4  122.02  143.68   1
  -1   3   4   30.21   38.17   1
   1  -3  -4   74.13   83.60   1
   1  -3  -4    4.09   36.56   1
  -1   3   5 1597.01  360.80   1
  -1   3   5 1596.72  233.77   1
   1  -3  -5 1427.98  345.63   1
   1  -3  -5 1492.81  234.26   1
  -1   3   6  231.44  141.85   1
  -1   3   6   30.42   38.51   1
   1  -3  -6  136.39   65.65   1
   1  -3  -6   43.03   40.74   1
  -1   3   7  186.44  127.44   1
  -1   3   7   83.57   41.31   1
   1  -3  -7   69.76   79.82   1
   1  -3  -7   64.08   44.24   1
  -1   3   8 -136.44  127.73   1
  -1   3   8  -16.45   38.12   1
   1  -3  -8   52.88  114.51   1
   1  -3  -8   20.59   41.75   1
  -1   3   9 3233.64  587.92   1
  -1   3   9 2625.39  388.55   1
   1  -3  -9 3213.17  591.37   1
   1  -3  -9 2444.97  387.99   1
  -1   3  10  173.54   54.77   1
   1  -3 -10  114.40   53.14   1
  -1   3  11   36.43   55.77   1
   1  -3 -11   33.54   46.95   1
  -1   3  12 1168.06  162.64   1
   1  -3 -12  769.13  154.02   1
  -1   3  13  115.05   60.90   1
   1  -3 -13  131.15   63.61   1
  -1   3  14  485.22  103.60   1
   1  -3 -14  325.97  100.05   1
  -1   3  15  622.09  114.03   1
   1  -3 -15  413.68  105.45   1
  -1   4   114904.35 2691.56   1
  -1   4   112160.73 1729.81   1
  -1   4   112035.22 1730.70   1
   1  -4  -112199.44 2688.14   1
   1  -4  -111934.30 1731.33   1
  -1   4   2 6973.03 1753.31   1
  -1   4   2 8367.50 1130.71   1
  -1   4   2 8443.60 1131.46   1
   1  -4  -2 8526.06 1750.06   1
   1  -4  -2 6803.21 1130.56   1
  -1   4   3 1182.47  401.05   1
  -1   4   3 1944.66  257.72   1
  -1   4   3 1832.40  258.10   1
   1  -4  -3 2128.61  392.39   1
   1  -4  -3 1322.57  257.82   1
  -1   4   4  -38.77  151.30   1
  -1   4   4   32.05   35.44   1
   1  -4  -4   77.84   92.03   1
   1  -4  -4   65.22   32.15   1
  -1   4   5 1176.58  330.19   1
  -1   4   5 1332.06  197.00   1
   1  -4  -5 1370.82  291.02   1
   1  -4  -5 1211.15  196.52   1
  -1   4   611804.55 2011.95   1
  -1   4   6 9328.54 1296.01   1
   1  -4  -6 8161.79 2003.81   1
   1  -4  -6 8752.47 1295.03   1
  -1   4   718717.27 3380.03   1
  -1   4   715386.75 2173.04   1
   1  -4  -715947.64 3376.33   1
   1  -4  -714694.78 2172.13   1
  -1   4   8 4468.79  824.89   1
  -1   4   8 3614.02  531.41   1
   1  -4  -8 4041.69  813.28   1
   1  -4  -8 3485.41  531.05   1
  -1   4   9  934.55  231.23   1
  -1   4   9  724.56  125.18   1
   1  -4  -9 1228.66  215.81   1
   1  -4  -9  662.98  126.29   1
  -1   4  10  135.69  157.87   1
  -1   4  10  172.80   55.18   1
   1  -4 -10  496.35  171.94   1
   1  -4 -10  165.42   59.59   1
  -1   4  11 2927.65  555.42   1
  -1   4  11 2387.52  348.49   1
   1  -4 -11 2185.49  347.06   1
  -1   4  12 9216.58 1169.27   1
   1  -4 -12 7132.61 1165.65   1
  -1   4  13 2558.48  340.27   1
   1  -4 -13 1859.35  327.57   1
  -1   4  14  -12.56   73.34   1
   1  -4 -14    0.53   73.09   1
  -1   5   118211.81 3063.32   1
  -1   5   113633.66 1965.00   1
   1  -5  -112647.46 3056.42   1
  -1   5   215741.84 3218.23   1
  -1   5   215543.17 2066.96   1
  -1   5   216257.31 2068.28   1
   1  -5  -216463.42 3216.22   1
   1  -5  -211248.96 2067.01   1
  -1   5   3 1459.52  329.57   1
  -1   5   3 1362.10  198.09   1
  -1   5   3 1372.84  198.02   1
   1  -5  -3 1899.68  309.72   1
   1  -5  -3 1044.88  197.04   1
  -1   5   4 6025.88 2225.03   1
  -1   5   411104.52 1436.72   1
  -1   5   411092.74 1438.14   1
   1  -5  -411906.68 2230.05   1
   1  -5  -4 7994.35 1436.07   1
  -1   5   5 3793.16  843.20   1
  -1   5   5 4117.13  543.67   1
  -1   5   5 3723.04  543.19   1
   1  -5  -5 3980.56  831.70   1
   1  -5  -5 3301.50  543.04   1
  -1   5   6 2275.13  441.09   1
  -1   5   6 1775.39  273.84   1
   1  -5  -6 1948.42  408.16   1
   1  -5  -6 1781.79  272.43   1
  -1   5   715139.35 2791.21   1
  -1   5   712376.24 1793.35   1
   1  -5  -714095.15 2785.16   1
   1  -5  -712310.52 1792.40   1
  -1   5   8 2140.29  424.74   1
  -1   5   8 1549.36  245.34   1
   1  -5  -8 2110.88  381.98   1
   1  -5  -8 1537.70  245.59   1
  -1   5   9 2136.26  417.98   1
  -1   5   9 1526.43  245.16   1
   1  -5  -9 1923.89  385.68   1
   1  -5  -9 1558.35  247.10   1
  -1   5  10 5206.82  899.07   1
  -1   5  10 3726.86  574.12   1
   1  -5 -10 6335.81  892.67   1
   1  -5 -10 3645.44  574.60   1
  -1   5  11   15.36  204.70   1
  -1   5  11  155.31   55.63   1
   1  -5 -11  553.00  232.26   1
   1  -5 -11  198.45   63.28   1
  -1   5  12 1337.20  382.01   1
  -1   5  12 1247.92  196.64   1
   1  -5 -12 1174.96  194.83   1
  -1   5  13 1118.98  198.76   1
   1  -5 -13 1096.55  184.96   1
  -1   5  14  151.39   80.89   1
   1  -5 -14  119.21   72.00   1
  -1   6   1  311.12  228.04   1
  -1   6   1  202.21   50.48   1
  -1   6   1  223.51   50.34   1
   1  -6  -1  225.87  199.53   1
   1  -6  -1  232.43   52.43   1
  -1   6   2 2950.43  483.45   1
  -1   6   2 1844.17  277.69   1
  -1   6   2 2060.56  278.85   1
   1  -6  -2 2370.84  443.53   1
   1  -6  -2 1557.35  278.57   1
  -1   6   3  376.84  249.05   1
  -1   6   3  285.44   60.59   1
  -1   6   3  335.90   60.93   1
   1  -6  -3  449.07  161.53   1
   1  -6  -3  222.95   62.35   1
  -1   6   4 8376.40 2374.49   1
  -1   6   411592.32 1525.66   1
  -1   6   410928.41 1526.29   1
   1  -6  -414701.82 2373.39   1
   1  -6  -4 9022.35 1524.83   1
  -1   6   514162.58 3718.14   1
  -1   6   517297.00 2386.16   1
  -1   6   516358.65 2386.87   1
   1  -6  -519878.13 3717.56   1
   1  -6  -516119.96 2386.37   1
  -1   6   6 3186.24  710.21   1
  -1   6   6 2920.59  440.58   1
  -1   6   6 3055.60  441.44   1
   1  -6  -6 3799.88  683.01   1
   1  -6  -6 2874.39  442.17   1
  -1   6   7  206.36  225.92   1
  -1   6   7  165.69   60.56   1
   1  -6  -7  201.05  130.45   1
   1  -6  -7  208.38   66.89   1
  -1   6   8  373.33  311.45   1
  -1   6   8   76.58   46.39   1
   1  -6  -8  132.58   53.07   1
  -1   6   9 2941.34  642.32   1
  -1   6   9 2304.31  355.17   1
   1  -6  -9 3028.53  563.61   1
   1  -6  -9 2282.32  354.37   1
  -1   6  10 8647.43 1302.02   1
  -1   6  10 5263.34  806.44   1
   1  -6 -10 8592.98 1269.67   1
   1  -6 -10 5245.21  805.26   1
  -1   6  11 2077.96  467.33   1
  -1   6  11 1252.62  209.85   1
   1  -6 -11 1696.78  380.83   1
   1  -6 -11 1323.80  211.21   1
  -1   6  12  174.78  341.43   1
  -1   6  12  176.69   74.01   1
   1  -6 -12  125.24   69.05   1
  -1   6  13  141.42   79.81   1
   1  -6 -13  160.83   70.83   1
  -1   6  14  389.88  109.87   1
   1  -6 -14  434.43   98.11   1
  -1   7   1  542.44  237.01   1
  -1   7   1  277.58   61.16   1
   1  -7  -1  317.36  172.75   1
   1  -7  -1  289.33   64.00   1
  -1   7   2 2635.07  416.61   1
  -1   7   2 1606.93  223.19   1
   1  -7  -2 1721.39  377.11   1
   1  -7  -2 1188.95  223.83   1
  -1   7   3  894.58  301.79   1
  -1   7   3  635.34  112.22   1
   1  -7  -3  728.87  211.99   1
  -1   7   4  955.88  299.36   1
  -1   7   4  772.13  117.06   1
  -1   7   4  702.22  118.56   1
   1  -7  -4  890.25  210.91   1
   1  -7  -4  577.85  121.52   1
  -1   7   5 1300.66  368.91   1
  -1   7   5 1226.19  184.73   1
  -1   7   5 1169.91  183.99   1
   1  -7  -5 1529.44  308.54   1
   1  -7  -5 1070.08  185.24   1
  -1   7   6   88.68  255.26   1
  -1   7   6    3.28   41.41   1
  -1   7   6   49.21   45.81   1
   1  -7  -6  117.54  130.99   1
   1  -7  -6   31.78   45.35   1
  -1   7   7  144.94  247.39   1
  -1   7   7   37.38   41.82   1
  -1   7   7   26.37   40.32   1
   1  -7  -7  100.49  169.09   1
   1  -7  -7   37.89   46.04   1
  -1   7   8  292.06  421.25   1
  -1   7   8   23.60   51.10   1
  -1   7   8    9.19   42.10   1
   1  -7  -8   18.76  233.32   1
   1  -7  -8   23.84   47.87   1
  -1   7   9  179.62  407.71   1
  -1   7   9   19.25   45.85   1
  -1   7   9    3.39   39.63   1
   1  -7  -9  -13.73  208.47   1
   1  -7  -9   40.34   48.81   1
  -1   7  10  185.61  416.97   1
  -1   7  10  141.19   52.32   1
   1  -7 -10  106.26  271.00   1
   1  -7 -10  173.22   60.29   1
  -1   7  11  725.34  437.78   1
  -1   7  11  407.87   93.21   1
   1  -7 -11  487.28  294.07   1
   1  -7 -11  491.49   93.90   1
  -1   7  12  -14.04  405.84   1
  -1   7  12   50.86   62.92   1
   1  -7 -12  150.97  282.29   1
   1  -7 -12   61.80   62.40   1
  -1   7  13   87.27  527.80   1
  -1   7  13  164.56   80.80   1
   1  -7 -13  163.51   71.28   1
  -1   8   1 2243.58  527.81   1
  -1   8   1 2175.63  319.35   1
  -1   8   1 2162.05  321.64   1
   1  -8  -1 1859.18  503.85   1
   1  -8  -1 2086.65  325.58   1
  -1   8   2 1814.51  400.46   1
  -1   8   2 1409.56  218.30   1
  -1   8   2 1394.13  217.75   1
   1  -8  -2  869.01  348.14   1
   1  -8  -2 1475.76  223.86   1
  -1   8   3  712.72  279.25   1
  -1   8   3  429.56   86.19   1
  -1   8   3  402.02   90.73   1
   1  -8  -3  404.60  182.11   1
   1  -8  -3  486.61  102.40   1
  -1   8   4 1641.70  409.31   1
  -1   8   4 1421.17  213.56   1
  -1   8   4 1319.11  211.11   1
   1  -8  -4 1367.24  336.51   1
   1  -8  -4 1328.82  214.94   1
  -1   8   5 4856.37 1238.54   1
  -1   8   5 5390.20  785.95   1
  -1   8   5 5221.35  785.30   1
   1  -8  -5 7467.60 1222.21   1
  -1   8   6 4820.09 1311.60   1
  -1   8   6 5985.98  834.14   1
  -1   8   6 5753.68  834.25   1
   1  -8  -6 7992.03 1298.74   1
   1  -8  -6 5310.98  833.90   1
  -1   8   7 1340.69  342.90   1
  -1   8   7  802.90  158.49   1
  -1   8   7 1057.31  162.74   1
   1  -8  -7 1559.43  301.91   1
   1  -8  -7 1015.82  162.11   1
  -1   8   8  158.39  450.06   1
  -1   8   8    5.88   36.80   1
  -1   8   8   27.37   43.79   1
   1  -8  -8  101.10  204.91   1
   1  -8  -8   55.37   48.40   1
  -1   8   9  167.21  372.46   1
  -1   8   9   -8.47   53.59   1
  -1   8   9   -4.44   41.11   1
   1  -8  -9   47.95  187.29   1
   1  -8  -9   84.07   59.17   1
  -1   8  10 2525.97  635.57   1
  -1   8  10 1812.28  275.04   1
  -1   8  10 1611.35  275.72   1
   1  -8 -10 2577.84  479.18   1
   1  -8 -10 1833.55  276.22   1
  -1   8  11 6700.89 1158.35   1
  -1   8  11 4780.48  666.83   1
  -1   8  11 3956.46  666.49   1
   1  -8 -11 4790.18  669.06   1
  -1   8  12 1307.40  193.63   1
  -1   8  12 1045.14  195.88   1
   1  -8 -12 1135.66  442.59   1
   1  -8 -12 1141.97  193.17   1
  -1   9   1 3748.17  671.58   1
  -1   9   1 3003.19  409.75   1
  -1   9   1 2532.15  409.43   1
   1  -9  -1 2009.74  637.60   1
   1  -9  -1 2817.49  416.41   1
  -1   9   2  119.65  241.54   1
  -1   9   2   74.65   50.30   1
  -1   9   2  108.69   55.04   1
   1  -9  -2  144.46  163.66   1
   1  -9  -2  118.25   76.08   1
  -1   9   3 3631.98  667.99   1
  -1   9   3 2956.93  406.16   1
  -1   9   3 2566.82  408.31   1
   1  -9  -3 2811.53  629.59   1
   1  -9  -3 2563.41  407.50   1
  -1   9   4 1394.14  392.96   1
  -1   9   4 1122.84  167.97   1
  -1   9   4  972.16  166.08   1
   1  -9  -4  902.75  273.78   1
   1  -9  -4  892.44  169.82   1
  -1   9   5  958.65  421.88   1
  -1   9   5 1375.49  193.34   1
  -1   9   5 1060.39  198.88   1
   1  -9  -5 1322.50  318.66   1
   1  -9  -5 1231.08  197.85   1
  -1   9   6 3335.54  819.43   1
  -1   9   6 3913.41  510.87   1
  -1   9   6 3257.07  512.00   1
   1  -9  -6 5176.95  800.78   1
   1  -9  -6 2989.58  510.02   1
  -1   9   7  251.07  266.60   1
  -1   9   7  122.21   67.38   1
  -1   9   7  156.89   76.94   1
   1  -9  -7  213.74  178.03   1
   1  -9  -7  128.36   66.99   1
  -1   9   8 2328.59  624.40   1
  -1   9   8 2147.48  315.37   1
  -1   9   8 1943.30  316.36   1
   1  -9  -8 2690.37  519.73   1
   1  -9  -8 2031.44  316.85   1
  -1   9   9 3290.61  715.42   1
  -1   9   9 2319.79  376.16   1
  -1   9   9 2454.52  381.81   1
   1  -9  -9 3106.84  606.01   1
   1  -9  -9 2611.84  380.87   1
  -1   9  10  -54.63  522.28   1
  -1   9  10   10.36   55.83   1
  -1   9  10  -16.09   60.31   1
   1  -9 -10   69.84  257.37   1
   1  -9 -10   48.96   56.19   1
  -1   9  11 1601.62  623.50   1
  -1   9  11 1410.63  207.45   1
  -1   9  11 1035.10  207.97   1
   1  -9 -11 1648.62  478.94   1
   1  -9 -11 1262.58  202.79   1
  -1  10   1 1268.45  330.14   1
  -1  10   1  717.99  154.11   1
   1 -10  -1  881.14  264.33   1
   1 -10  -1 1090.51  161.96   1
  -1  10   2 1028.97  294.75   1
  -1  10   2  624.25  114.51   1
  -1  10   2  562.42  120.61   1
   1 -10  -2  544.22  215.83   1
   1 -10  -2  527.74  116.78   1
  -1  10   311263.33 1763.63   1
  -1  10   3 8065.38 1117.80   1
  -1  10   3 7404.37 1119.24   1
   1 -10  -3 8517.48 1738.39   1
   1 -10  -3 7385.81 1123.17   1
  -1  10   4 7342.15 1601.92   1
  -1  10   4 7498.04 1017.99   1
  -1  10   4 6660.67 1018.02   1
   1 -10  -4 8503.72 1585.69   1
   1 -10  -4 6792.74 1020.35   1
  -1  10   5  471.61  346.25   1
  -1  10   5  463.79   91.88   1
  -1  10   5  365.05  104.27   1
   1 -10  -5  775.58  212.19   1
   1 -10  -5  397.11   99.21   1
  -1  10   6  276.43  284.62   1
  -1  10   6  229.29   76.99   1
  -1  10   6  182.12   84.35   1
   1 -10  -6  395.77  198.88   1
   1 -10  -6  256.97   94.88   1
  -1  10   7  265.66  531.81   1
  -1  10   7  -13.44   51.72   1
  -1  10   7   28.58   60.30   1
   1 -10  -7  -71.89  248.63   1
   1 -10  -7   42.22   58.63   1
  -1  10   8 2196.82  792.82   1
  -1  10   8 2226.68  344.86   1
  -1  10   8 2218.98  345.90   1
   1 -10  -8 3531.59  626.30   1
   1 -10  -8 2187.35  346.87   1
  -1  10   9 3683.51  861.19   1
  -1  10   9 3181.21  448.45   1
  -1  10   9 2680.44  449.25   1
   1 -10  -9 4519.56  745.18   1
   1 -10  -9 2833.55  446.22   1
  -1  10  10 1002.85  653.86   1
  -1  11   1 1796.67  445.70   1
  -1  11   1  856.27  153.54   1
  -1  11   1  736.76  157.77   1
   1 -11  -1 1061.40  316.09   1
   1 -11  -1  903.88  167.29   1
  -1  11   2  782.08  388.31   1
  -1  11   2  291.53   87.91   1
  -1  11   2  239.57   96.76   1
   1 -11  -2  463.51  249.99   1
   1 -11  -2  297.65  117.17   1
  -1  11   3  325.93  383.00   1
  -1  11   3  103.39   75.22   1
  -1  11   3  152.83   71.90   1
   1 -11  -3  301.29  250.17   1
   1 -11  -3  231.46   91.63   1
  -1  11   4 1036.86  408.69   1
  -1  11   4  337.41   88.33   1
  -1  11   4  312.67  105.56   1
   1 -11  -4 1057.64  273.98   1
   1 -11  -4  449.61  116.60   1
  -1  11   5  115.73  389.70   1
  -1  11   5  -47.74   53.87   1
  -1  11   5   -4.74   65.06   1
   1 -11  -5  197.52  272.82   1
   1 -11  -5   56.95   83.72   1
  -1  11   6  168.45  401.16   1
  -1  11   6  181.56   81.71   1
  -1  11   6  147.54   87.23   1
   1 -11  -6  537.44  266.63   1
   1 -11  -6  204.83   90.64   1
  -1  11   7  519.32  626.62   1
  -1  11   7  197.81   89.85   1
   1 -11  -7  250.51  313.23   1
   1 -11  -7  109.01   92.06   1
   0 -12   1 1111.91  302.20   1
   0  12  -1 1069.93  428.31   1
   0  12  -1  184.93   98.37   1
   0 -11   1 3197.06  461.17   1
   0  11  -1 3664.35  536.66   1
   0  11  -1 1717.04  252.00   1
   0  11  -1 1176.15  251.43   1
   0 -11   2 3896.66  497.70   1
   0  11  -2 5370.75  638.37   1
   0  11  -2 1856.25  273.14   1
   0  11  -2 1213.42  267.45   1
   0 -11   3 3271.73  461.24   1
   0  11  -3 3815.76  560.81   1
   0  11  -3 1096.54  226.83   1
   0 -11   4 1779.17  487.32   1
   0  11  -4 1573.95  555.89   1
   0 -11   5 2355.40  641.00   1
   0 -10   1 3597.34  665.09   1
   0  10  -1 5028.22  706.53   1
   0  10  -1 2593.18  419.86   1
   0 -10   2 4883.02  898.58   1
   0  10  -2 6101.74  914.94   1
   0  10  -2 3844.24  567.38   1
   0  10  -2 3593.13  566.32   1
   0 -10   3  374.25  201.96   1
   0  10  -3  379.89  339.45   1
   0  10  -3  279.91   76.18   1
   0  10  -3  231.91   81.39   1
   0 -10   4  595.18  219.61   1
   0  10  -4  789.52  499.03   1
   0  10  -4  257.94   88.70   1
   0  10  -4  289.79   86.85   1
   0 -10   5  529.19  326.35   1
   0  10  -5  447.54  383.81   1
   0  10  -5  313.27  108.75   1
   0  10  -5  276.55  106.13   1
   0 -10   6 1563.97  399.05   1
   0 -10   6  670.22  153.24   1
   0  10  -6 1185.46  434.36   1
   0  10  -6  682.30  157.71   1
   0 -10   7 2903.46  539.78   1
   0 -10   7 1496.63  283.42   1
   0  10  -7 2753.05  618.10   1
   0  -9   1 4840.36 1096.29   1
   0   9  -1 7510.21 1132.77   1
   0   9  -1 4588.38  705.77   1
   0   9  -1 5008.21  706.94   1
   0  -9   212822.29 2818.26   1
   0   9  -218652.84 2840.85   1
   0   9  -212238.99 1809.62   1
   0  -9   3 5881.44 1162.61   1
   0  -9   3 4751.11  747.52   1
   0   9  -3 7146.59 1181.79   1
   0   9  -3 5323.64  747.64   1
   0  -9   4  249.62  176.62   1
   0  -9   4  115.40   63.95   1
   0   9  -4    1.95  441.96   1
   0   9  -4  101.67   56.24   1
   0  -9   5  699.65  251.18   1
   0  -9   5  461.86  102.33   1
   0   9  -5  887.44  364.47   1
   0   9  -5  383.86   97.50   1
   0   9  -5  451.11   98.56   1
   0  -9   6 1165.21  359.68   1
   0  -9   6  997.58  183.04   1
   0  -9   7 6072.32  944.97   1
   0  -9   7 3714.99  589.85   1
   0   9  -7 6487.17  992.14   1
   0   9  -7 3577.07  587.40   1
   0   9  -7 4154.67  591.18   1
   0  -9   8 5026.55  895.98   1
   0  -9   8 3363.30  561.99   1
   0   9  -8 5724.23  949.84   1
   0   9  -8 3767.20  561.39   1
   0  -8   1 9098.74 2638.32   1
   0   8  -119348.47 2666.21   1
   0   8  -111884.53 1697.38   1
   0  -8   228791.03 6879.69   1
   0  -8   228747.42 4406.66   1
   0   8  -241578.93 6892.39   1
   0   8  -233123.28 4408.01   1
   0  -8   324718.04 5996.43   1
   0  -8   325829.14 3843.32   1
   0   8  -330805.88 6003.19   1
   0   8  -326763.52 3844.35   1
   0   8  -328313.82 3842.96   1
   0  -8   4 8689.45 1859.69   1
   0  -8   4 8772.19 1198.10   1
   0   8  -410347.00 1870.49   1
   0   8  -4 7947.26 1198.53   1
   0   8  -4 8021.98 1196.92   1
   0  -8   5 2385.71  521.50   1
   0  -8   5 2210.58  334.75   1
   0   8  -5 3720.36  640.03   1
   0   8  -5 2199.49  338.65   1
   0   8  -5 2112.11  333.65   1
   0  -8   6 2983.87  638.34   1
   0  -8   6 2950.05  412.32   1
   0   8  -6 4078.52  690.31   1
   0   8  -6 2271.68  412.63   1
   0  -8   7 9541.42 1918.18   1
   0  -8   7 8197.25 1234.69   1
   0   8  -712576.11 1947.28   1
   0   8  -7 8349.91 1235.21   1
   0  -8   810147.78 1727.47   1
   0  -8   8 6967.45 1098.65   1
   0   8  -812171.20 1754.67   1
   0   8  -8 7119.77 1096.58   1
   0   8  -8 7789.77 1100.10   1
   0  -8   9 3186.26  856.55   1
   0  -8   9 3477.42  535.71   1
   0   8  -9 3460.75  926.23   1
   0   8  -9 3964.20  538.60   1
   0   8  -9 3391.37  537.20   1
   0  -8  10 2335.32  608.41   1
   0  -8  10 2026.17  339.00   1
   0   8 -10  518.17  744.93   1
   0   8 -10 2408.47  344.91   1
   0  -7   1 5535.83 1589.76   1
   0  -7   1 7535.77 1026.63   1
   0   7  -1 9887.79 1609.87   1
   0   7  -1 6823.45 1025.78   1
   0   7  -1 7148.55 1026.36   1
   0  -7   2 7153.56 2079.85   1
   0  -7   2 9109.60 1341.18   1
   0   7  -212425.53 2097.06   1
   0   7  -2 9744.08 1340.85   1
   0  -7   3 9159.21 2361.24   1
   0  -7   310692.26 1519.68   1
   0   7  -313691.82 2374.62   1
   0   7  -311315.93 1520.36   1
   0   7  -3 9912.12 1518.79   1
   0  -7   4 6222.80 1449.06   1
   0  -7   4 7437.15  937.15   1
   0   7  -4 7963.19 1457.81   1
   0   7  -4 5524.77  934.87   1
   0  -7   5 6678.22 1636.24   1
   0   7  -510319.63 1659.09   1
   0   7  -5 7195.85 1060.45   1
   0   7  -5 7310.40 1058.02   1
   0  -7   6 5954.90 1441.27   1
   0  -7   6 5962.38  933.08   1
   0   7  -6 9473.00 1477.59   1
   0   7  -6 7312.66  936.77   1
   0   7  -6 5986.86  934.12   1
   0  -7   7 2338.36  600.12   1
   0  -7   7 2430.27  387.69   1
   0   7  -7 3578.23  642.72   1
   0   7  -7 2869.77  387.92   1
   0   7  -7 2255.64  387.37   1
   0  -7   8  702.80  273.29   1
   0  -7   8  898.88  156.35   1
   0   7  -8 1102.92  326.14   1
   0   7  -8  838.58  146.56   1
   0   7  -8  825.42  157.59   1
   0  -7   9 1391.23  409.21   1
   0  -7   9 1428.88  232.37   1
   0   7  -9 1562.16  505.76   1
   0   7  -9 1461.81  235.26   1
   0   7  -9 1453.72  241.77   1
   0  -7  10 1828.04  580.01   1
   0  -7  10 2550.62  363.46   1
   0   7 -10 1255.97  692.39   1
   0   7 -10 2486.98  364.40   1
   0   7 -10 2211.95  368.81   1
   0  -7  11 2471.45  766.25   1
   0  -7  11 3502.88  457.86   1
   0   7 -11 1333.27  804.39   1
   0   7 -11 2706.31  452.56   1
   0   7 -11 3149.85  457.48   1
   0  -6   1 1501.28  504.15   1
   0  -6   1 2138.26  331.27   1
   0  -6   1 2254.98  334.00   1
   0   6  -1 2693.35  517.34   1
   0   6  -1 2247.95  330.58   1
   0   6  -1 2394.10  331.26   1
   0  -6   2  900.89  280.06   1
   0  -6   2 1107.10  183.31   1
   0   6  -2 1702.36  314.21   1
   0   6  -2 1285.56  183.26   1
   0  -6   3  785.31  195.63   1
   0  -6   3  716.25  115.80   1
   0   6  -3  918.06  231.36   1
   0   6  -3  644.47  114.55   1
   0   6  -3  694.18  115.43   1
   0  -6   4  272.22  131.04   1
   0  -6   4  300.62   62.50   1
   0   6  -4  296.35  152.89   1
   0   6  -4  222.11   55.81   1
   0   6  -4  212.27   56.41   1
   0  -6   5 3768.37 1020.13   1
   0  -6   5 4729.37  667.04   1
   0   6  -5 5804.28 1036.33   1
   0   6  -5 4491.35  668.43   1
   0   6  -5 4536.33  668.34   1
   0  -6   6 7343.32 1874.95   1
   0   6  -610921.47 1888.77   1
   0   6  -6 9417.62 1215.87   1
   0   6  -6 7387.09 1214.14   1
   0  -6   7 1744.07  433.65   1
   0  -6   7 1856.28  287.82   1
   0   6  -7 2995.28  495.02   1
   0   6  -7 1702.31  286.11   1
   0   6  -7 1976.00  293.31   1
   0  -6   8  863.43  282.69   1
   0   6  -8 1166.40  333.37   1
   0   6  -8 1076.85  176.50   1
   0   6  -8 1074.94  179.58   1
   0  -6   9 1174.96  318.24   1
   0  -6   9 1322.21  198.08   1
   0   6  -9 1003.61  355.11   1
   0   6  -9 1184.99  196.71   1
   0   6  -9 1031.16  201.46   1
   0  -6  10  324.62  221.40   1
   0  -6  10  516.65  112.60   1
   0   6 -10  470.49  299.32   1
   0   6 -10  612.69  127.72   1
   0   6 -10  549.58  127.73   1
   0  -6  11 4090.26  586.11   1
   0   6 -11 2386.83  938.95   1
   0   6 -11 3623.14  584.86   1
   0   6 -11 4515.25  591.85   1
   0  -6  12 2066.35  327.05   1
   0   6 -12 2071.26  326.89   1
   0   6 -12 2122.84  334.42   1
   0  -5   129922.6811584.55   1
   0  -5   152833.31 7418.83   1
   0   5  -160633.8511588.28   1
   0   5  -152343.28 7415.74   1
   0   5  -154281.25 7416.04   1
   0  -5   2 6518.25 2019.31   1
   0  -5   2 9259.47 1305.02   1
   0   5  -210280.52 2025.32   1
   0   5  -2 9221.47 1304.34   1
   0  -5   3  290.04  140.55   1
   0  -5   3  409.37   73.24   1
   0   5  -3  391.85  180.71   1
   0   5  -3  408.20   74.71   1
   0  -5   4  542.64  159.30   1
   0  -5   4  530.33   92.05   1
   0   5  -4  602.56  171.86   1
   0   5  -4  531.93   93.64   1
   0   5  -4  521.56   94.35   1
   0  -5   5 5715.61 1366.81   1
   0  -5   5 6227.47  888.05   1
   0   5  -5 8924.69 1380.76   1
   0   5  -5 6015.81  890.38   1
   0   5  -5 5939.90  889.71   1
   0  -5   623305.26 5553.22   1
   0  -5   626987.20 3564.91   1
   0   5  -634867.76 5558.47   1
   0   5  -621039.24 3565.59   1
   0   5  -625531.64 3566.68   1
   0  -5   716828.27 3765.90   1
   0  -5   717253.65 2422.25   1
   0   5  -724277.54 3773.40   1
   0   5  -715704.43 2421.19   1
   0  -5   8 1155.47  311.10   1
   0  -5   8 1253.54  208.59   1
   0   5  -8 1527.37  355.03   1
   0   5  -8 1439.04  204.66   1
   0   5  -8 1130.03  207.45   1
   0  -5   9  156.98  147.06   1
   0  -5   9   61.85   75.61   1
   0   5  -9  262.61  208.33   1
   0   5  -9  220.95   77.12   1
   0  -5  10  718.81  249.70   1
   0  -5  10 1024.57  160.99   1
   0   5 -10  734.72  292.33   1
   0   5 -10  935.47  171.79   1
   0  -5  11 7949.29 1096.91   1
   0   5 -11 7243.63 1096.79   1
   0  -5  12 6809.20  984.79   1
   0   5 -12 6798.26  985.22   1
   0  -5  13 1607.15  266.76   1
   0   5 -13 1697.73  266.84   1
   0  -4   139607.7317832.33   1
   0  -4   184348.3411409.39   1
   0  -4   181279.0211411.38   1
   0   4  -188413.2817835.31   1
   0  -4   250767.3817688.31   1
   0  -4   283469.0211317.55   1
   0   4  -283080.5417690.48   1
   0  -4   3 9408.65 2454.30   1
   0  -4   311334.71 1584.06   1
   0   4  -314427.83 2459.54   1
   0   4  -310956.16 1584.26   1
   0   4  -310828.87 1585.78   1
   0  -4   4 2978.95  752.41   1
   0  -4   4 3637.06  496.65   1
   0   4  -4 3418.04  757.13   1
   0   4  -4 3052.20  495.81   1
   0   4  -4 3557.85  497.06   1
   0  -4   512818.83 3192.56   1
   0  -4   514582.16 2056.44   1
   0   4  -519529.56 3198.12   1
   0   4  -513736.75 2058.85   1
   0  -4   626900.87 6167.82   1
   0  -4   626105.85 3956.74   1
   0   4  -635751.02 6170.32   1
   0   4  -628709.50 3958.97   1
   0  -4   725903.95 5990.30   1
   0  -4   726965.89 3844.33   1
   0   4  -735893.04 5993.73   1
   0   4  -725840.07 3843.39   1
   0  -4   812131.65 3128.72   1
   0  -4   813805.35 2016.43   1
   0   4  -818906.06 3134.88   1
   0   4  -814015.99 2015.79   1
   0  -4   9 3511.03 1073.17   1
   0  -4   9 4650.40  701.97   1
   0   4  -9 5278.38 1080.65   1
   0   4  -9 5154.35  704.84   1
   0  -4  10 4324.26  655.46   1
   0   4 -10 4658.91  658.74   1
   0  -4  11 8014.08 1172.89   1
   0   4 -11 8253.22 1172.32   1
   0  -4  12 6871.63  993.72   1
   0  -4  13 4195.34  621.24   1
   0   4 -13 4271.35  624.41   1
   0  -3   126490.6011148.40   1
   0  -3   153686.07 7139.33   1
   0  -3   149720.73 7140.95   1
   0   3  -156458.4111149.85   1
   0  -3   218958.55 7577.88   1
   0  -3   236407.15 4859.64   1
   0   3  -232040.25 7577.67   1
   0   3  -234148.09 4858.61   1
   0   3  -234796.68 4860.61   1
   0  -3   3 9796.68 2799.28   1
   0  -3   312993.20 1805.46   1
   0   3  -315819.55 2801.39   1
   0   3  -312414.71 1806.06   1
   0  -3   4 4485.57 1105.90   1
   0  -3   4 4928.44  723.15   1
   0   3  -4 5334.34 1108.25   1
   0   3  -4 5131.03  726.36   1
   0  -3   5 3250.38  744.99   1
   0  -3   5 3189.51  492.49   1
   0   3  -5 3955.33  748.76   1
   0   3  -5 3494.35  495.28   1
   0  -3   6 7900.84 1173.26   1
   0   3  -6 9703.92 1809.85   1
   0   3  -6 8123.57 1173.56   1
   0  -3   7 3964.89  993.83   1
   0  -3   7 4549.50  651.94   1
   0   3  -7 6290.44  999.71   1
   0   3  -7 4223.41  650.71   1
   0  -3   8 2889.99  793.53   1
   0  -3   8 3877.20  525.13   1
   0   3  -8 4876.87  799.96   1
   0   3  -8 3236.46  523.79   1
   0  -3   9 5549.58  810.88   1
   0   3  -9 5643.71  812.16   1
   0  -3  10 6376.11  967.31   1
   0   3 -10 7012.59  967.58   1
   0  -3  11 2230.75  340.16   1
   0   3 -11 2236.23  338.49   1
   0  -3  12  116.99   77.13   1
   0   3 -12  144.56   72.06   1
   0  -3  13   96.17   67.05   1
   0   3 -13  158.23   78.07   1
   0  -3  14 1123.40  169.07   1
   0   3 -14  901.64  170.83   1
   0  -2   1 2202.10  680.03   1
   0  -2   1 3032.94  447.62   1
   0   2  -1 3537.37  680.07   1
   0   2  -1 3293.60  446.80   1
   0   2  -1 2898.78  449.25   1
   0  -2   2 3773.57 1381.12   1
   0  -2   2 6415.47  899.69   1
   0   2  -2 6309.62 1379.89   1
   0   2  -2 6415.23  900.42   1
   0  -2   3  786.70  241.68   1
   0  -2   3 1061.89  166.69   1
   0   2  -3 1169.80  244.76   1
   0   2  -3 1089.63  168.58   1
   0  -2   4 5334.45 1268.42   1
   0  -2   4 5756.99  829.94   1
   0   2  -4 7763.12 1270.81   1
   0   2  -4 5455.93  832.35   1
   0  -2   513433.34 3224.33   1
   0  -2   514304.22 2080.88   1
   0   2  -516787.57 3225.88   1
   0  -2   6  646.84  156.13   1
   0   2  -6  882.63  165.52   1
   0   2  -6  651.02  113.68   1
   0  -2   7  978.79  281.33   1
   0  -2   7 1368.90  199.92   1
   0   2  -7 1460.68  285.90   1
   0   2  -7 1217.10  198.19   1
   0  -2   8 1047.78  160.23   1
   0   2  -8  946.40  163.35   1
   0  -2   9 2377.43  384.81   1
   0   2  -9 2785.30  385.24   1
   0  -2  1010196.41 1464.16   1
   0   2 -1010202.82 1463.07   1
   0  -2  11 3710.69  546.27   1
   0   2 -11 3734.28  545.76   1
   0  -2  12  159.38   54.59   1
   0   2 -12  148.53   67.88   1
   0  -2  13 1061.69  175.42   1
   0   2 -13 1034.27  177.80   1
   0  -2  14  104.56   85.25   1
   0   2 -14   82.03   67.14   1
   0   1  -116881.99 3738.54   1
   0  -1   2 1029.77  269.93   1
   0  -1   2 1305.50  190.25   1
   0   1  -2 1215.40  269.83   1
   0   1  -2 1172.42  191.59   1
   0  -1   3  535.56  141.32   1
   0  -1   3  582.27  103.77   1
   0   1  -3  691.40  145.73   1
   0   1  -3  618.40  106.63   1
   0  -1   427064.19 5784.89   1
   0  -1   428740.18 3719.67   1
   0   1  -429154.89 5787.99   1
   0   1  -423362.11 3717.08   1
   0  -1   554325.90 7957.33   1
   0   1  -564665.8312423.65   1
   0  -1   624560.30 3253.73   1
   0   1  -621182.80 3252.51   1
   0  -1   7 2314.76  346.93   1
   0   1  -7 2328.37  347.77   1
   0  -1   8  641.65  121.39   1
   0   1  -8  795.63  123.72   1
   0  -1   9 7124.88 1004.06   1
   0   1  -9 6796.75 1002.83   1
   0  -1  1022697.50 3213.75   1
   0   1 -1022388.11 3213.03   1
   0  -1  1118384.86 2689.93   1
   0   1 -1119244.01 2688.80   1
   0  -1  12 3458.07  525.52   1
   0   1 -12 3657.48  525.40   1
   0  -1  13  145.56   64.44   1
   0   1 -13  135.10   60.89   1
   0  -1  14  666.79  129.88   1
   0   1 -14  600.69  128.75   1
   0  -1  15 3755.51  509.69   1
   0   1 -15 3100.51  505.41   1
   0   0   2 9080.67 1207.85   1
   0   0  -2 7798.41 1206.85   1
   0   0   3 1985.86  267.35   1
   0   0  -3 1559.01  264.79   1
   0   0   429038.47 3679.28   1
   0   0  -423160.92 3676.62   1
   0   0   572390.35 8957.57   1
   0   0  -555589.59 8954.17   1
   0   0   671314.10 9168.30   1
   0   0  -659165.05 9164.88   1
   0   0   711714.90 1527.83   1
   0   0  -7 9760.31 1524.89   1
   0   0   8 3744.16  504.08   1
   0   0  -8 3162.14  501.30   1
   0   0   9 6758.35  972.82   1
   0   0  -9 6706.40  972.49   1
   0   0  1016851.42 2334.32   1
   0   0 -1015889.07 2332.73   1
   0   0  1117031.84 2383.58   1
   0   0 -1116378.55 2381.78   1
   0   0  12 7733.17 1090.75   1
   0   0 -12 7413.02 1088.21   1
   0   0  13 3367.40  498.17   1
   0   0 -13 3380.32  496.87   1
   0   0  14 3174.48  457.50   1
   0   0 -14 2987.84  455.92   1
   0   0  15 2335.91  339.58   1
   0   0 -15 2111.86  337.77   1
   0   1   210983.20 2968.24   1
   0   1   214640.30 1913.68   1
   0  -1  -212145.58 2968.42   1
   0  -1  -212893.70 1912.66   1
   0   1   3  175.69   71.43   1
   0   1   3  310.77   63.55   1
   0  -1  -3  274.66   59.78   1
   0   1   4 6178.64 2348.59   1
   0   1   411405.06 1520.30   1
   0  -1  -412988.02 2350.80   1
   0  -1  -410116.07 1519.83   1
   0   1   5 9200.43 1273.42   1
   0  -1  -5 8507.06 1274.28   1
   0   1   614919.89 2718.25   1
   0   1   613688.43 1757.19   1
   0  -1  -610498.00 1754.90   1
   0   1   7 4010.69  499.30   1
   0  -1  -7 2906.85  494.88   1
   0   1   8 3650.23  459.54   1
   0  -1  -8 2712.26  453.82   1
   0   1   9 3233.33  428.86   1
   0  -1  -9 2625.03  425.21   1
   0   1  10 2155.32  317.26   1
   0  -1 -10 2040.40  314.65   1
   0   1  11  830.96  142.24   1
   0  -1 -11  832.80  141.49   1
   0   1  12  702.25  128.99   1
   0  -1 -12  772.62  129.30   1
   0   1  13 1143.86  174.73   1
   0  -1 -13  995.66  175.46   1
   0   1  14 3154.74  465.51   1
   0  -1 -14 3100.32  466.71   1
   0   1  15 1193.40  190.01   1
   0  -1 -15 1085.56  194.74   1
   0   2   0 4412.95  818.26   1
   0   2   0 3648.75  535.39   1
   0   2   0 3763.93  535.35   1
   0  -2   0 3393.28  817.10   1
   0  -2   0 3635.88  535.54   1
   0   2   1 5687.19 1052.99   1
   0  -2  -1 5005.91 1052.50   1
   0  -2  -1 4607.60  686.42   1
   0   2   2 2451.90  558.92   1
   0  -2  -2 2302.25  556.85   1
   0  -2  -2 2562.99  369.12   1
   0   2   3 3323.77  958.67   1
   0   2   3 4801.82  630.14   1
   0  -2  -3 3909.14  959.32   1
   0  -2  -3 4126.13  629.69   1
   0   2   4 1218.24  417.19   1
   0   2   4 2149.03  284.08   1
   0  -2  -4 1863.78  417.82   1
   0  -2  -4 1746.80  281.50   1
   0   2   5 1146.21  424.14   1
   0   2   5 2090.86  289.71   1
   0  -2  -5 2660.31  427.42   1
   0  -2  -5 1774.06  287.32   1
   0   2   6  212.49   92.12   1
   0   2   6  287.15   58.21   1
   0  -2  -6  217.93   77.37   1
   0  -2  -6  250.10   59.79   1
   0   2   7  224.50   89.57   1
   0   2   7  237.20   60.44   1
   0  -2  -7  261.89   59.38   1
   0   2   8 4583.17  956.65   1
   0   2   8 4919.14  634.00   1
   0  -2  -8 3849.92  630.35   1
   0   2   910178.02 1280.92   1
   0  -2  -9 8005.12 1274.95   1
   0   2  10 2708.31  344.69   1
   0  -2 -10 1969.20  337.94   1
   0   2  11  423.40   92.38   1
   0  -2 -11  437.05   92.55   1
   0   2  12 1234.50  203.04   1
   0  -2 -12 1288.38  200.91   1
   0   2  13  956.91  173.66   1
   0  -2 -13 1106.41  174.28   1
   0   2  14 4969.91  755.62   1
   0  -2 -14 5367.84  754.98   1
   0   2  15 3049.01  460.37   1
   0  -2 -15 3115.45  460.40   1
   0   3   010612.91 2190.49   1
   0   3   0 9711.75 1413.33   1
   0   3   010576.22 1413.60   1
   0  -3   0 7349.94 2189.31   1
   0  -3   0 9997.17 1413.75   1
   0  -3   0 9453.09 1414.55   1
   0   3   1  471.88  128.94   1
   0   3   1  317.76   57.22   1
   0   3   1  351.75   58.32   1
   0  -3  -1  244.20  108.65   1
   0  -3  -1  240.92   57.01   1
   0   3   2 5666.76 1386.97   1
   0   3   2 6994.18  901.85   1
   0  -3  -2 6835.33 1387.51   1
   0  -3  -2 5605.49  900.11   1
   0   3   338261.5510413.44   1
   0   3   348094.94 6669.76   1
   0  -3  -344499.8910415.90   1
   0  -3  -347231.83 6669.94   1
   0   3   449461.4815854.25   1
   0  -3  -489942.5515857.95   1
   0  -3  -471015.5610145.96   1
   0   3   515262.15 6133.81   1
   0   3   531891.43 3938.98   1
   0  -3  -529345.22 6138.31   1
   0  -3  -525160.98 3936.55   1
   0   3   6  412.34  139.74   1
   0   3   6  440.21   89.41   1
   0  -3  -6  495.10  122.34   1
   0  -3  -6  486.66   86.69   1
   0   3   7  222.52  116.91   1
   0   3   7  268.91   66.59   1
   0  -3  -7  406.43  101.22   1
   0  -3  -7  376.70   69.65   1
   0   3   814681.89 3309.39   1
   0   3   814979.79 2132.43   1
   0  -3  -814889.95 2132.21   1
   0   3   934532.36 6311.95   1
   0   3   929888.92 4051.93   1
   0  -3  -926656.18 4049.77   1
   0   3  1028833.06 4622.37   1
   0   3  1022832.20 2973.88   1
   0  -3 -1018645.19 2970.20   1
   0   3  11 2817.56  390.62   1
   0  -3 -11 2390.82  384.51   1
   0   3  12  183.95   64.11   1
   0  -3 -12  135.40   68.79   1
   0   3  13 1777.63  279.28   1
   0  -3 -13 1824.85  277.00   1
   0   3  14 9632.41 1330.15   1
   0  -3 -14 8893.36 1327.23   1
   0   3  15 6972.97  972.86   1
   0  -3 -15 6480.20  970.26   1
   0   4   042660.45 7923.33   1
   0   4   035866.60 5075.12   1
   0  -4   026623.46 7920.47   1
   0  -4   036066.91 5074.90   1
   0   4   114183.02 2732.47   1
   0   4   113099.63 1758.05   1
   0   4   114006.54 1759.22   1
   0  -4  -111869.22 2730.96   1
   0  -4  -1 9738.35 1758.28   1
   0   4   2 3612.25  761.15   1
   0   4   2 3567.64  495.75   1
   0   4   2 3699.24  496.06   1
   0  -4  -2 1726.65  754.65   1
   0  -4  -2 3204.04  496.29   1
   0   4   333416.41 8240.82   1
   0   4   341421.94 5281.33   1
   0  -4  -338039.49 8242.03   1
   0  -4  -333874.57 5279.12   1
   0   4   469373.5919568.43   1
   0   4   489195.0512518.34   1
   0  -4  -492911.0019571.68   1
   0   4   527704.9010064.14   1
   0   4   548286.44 6448.08   1
   0  -4  -551095.6410068.31   1
   0  -4  -543793.59 6446.54   1
   0   4   6 8694.68 2350.29   1
   0   4   611832.85 1519.08   1
   0  -4  -611500.48 2351.67   1
   0  -4  -6 9587.33 1516.43   1
   0   4   7 1023.79  262.20   1
   0   4   7 1131.81  174.12   1
   0  -4  -7 1455.35  257.44   1
   0  -4  -7  975.22  168.99   1
   0   4   8 9425.15 2107.22   1
   0   4   8 9061.09 1361.95   1
   0  -4  -811429.63 2108.12   1
   0  -4  -8 9541.04 1361.40   1
   0   4   927988.87 5408.90   1
   0   4   923815.14 3470.78   1
   0  -4  -936980.64 5412.14   1
   0  -4  -922320.20 3470.05   1
   0   4  1028832.74 4990.91   1
   0   4  1023991.03 3203.99   1
   0  -4 -1020695.61 3201.20   1
   0   4  11 5888.13  744.93   1
   0  -4 -11 4489.41  738.27   1
   0   4  12 1624.05  233.58   1
   0  -4 -12 1342.84  226.43   1
   0   4  13 1495.60  231.85   1
   0  -4 -13 1381.47  223.03   1
   0   4  14 4895.96  696.13   1
   0  -4 -14 4620.78  691.52   1
   0   4  15 3198.06  456.42   1
   0  -4 -15 2915.38  452.22   1
   0   5   030270.69 5119.56   1
   0   5   023315.51 3281.79   1
   0   5   024798.41 3282.17   1
   0  -5   014713.17 5114.69   1
   0  -5   022292.32 3281.68   1
   0  -5   022466.12 3284.57   1
   0   5   1  439.29  174.28   1
   0   5   1  316.88   50.13   1
   0   5   1  307.63   51.92   1
   0  -5  -1  250.90  105.13   1
   0  -5  -1   79.37   52.49   1
   0   5   2 2070.08  388.74   1
   0   5   2 1924.35  248.85   1
   0   5   2 1707.96  248.33   1
   0  -5  -2 1586.12  375.77   1
   0  -5  -2 1334.15  247.46   1
   0   5   3 4256.19  886.36   1
   0   5   3 4238.52  575.38   1
   0   5   3 4407.33  577.52   1
   0  -5  -3 3742.66  880.96   1
   0  -5  -3 3369.23  574.78   1
   0   5   414271.95 3085.82   1
   0   5   414322.74 1984.26   1
   0  -5  -414857.17 3086.03   1
   0  -5  -413200.60 1984.70   1
   0   5   512371.35 3799.38   1
   0   5   517471.66 2442.65   1
   0  -5  -519704.21 3802.15   1
   0  -5  -516797.15 2442.66   1
   0   5   6 1166.87  268.24   1
   0   5   6 1055.52  172.62   1
   0  -5  -6 1363.04  256.41   1
   0  -5  -6 1047.85  170.33   1
   0   5   7  653.74  226.62   1
   0   5   7  741.51  127.53   1
   0  -5  -7  714.62  187.27   1
   0  -5  -7  794.51  129.49   1
   0   5   8  277.21  174.82   1
   0   5   8  473.13   88.25   1
   0  -5  -8  583.67  148.77   1
   0  -5  -8  456.04   88.28   1
   0   5   9 3672.72  647.55   1
   0   5   9 2666.63  406.79   1
   0  -5  -9 3899.02  632.60   1
   0  -5  -9 2543.34  404.92   1
   0   5  10 2230.35  427.78   1
   0   5  10 1635.97  252.74   1
   0  -5 -10 2403.98  411.36   1
   0  -5 -10 1474.66  249.67   1
   0   5  11  714.07  340.25   1
   0   5  11  559.41  109.45   1
   0  -5 -11  534.74  101.89   1
   0   5  12  537.50  291.75   1
   0   5  12  824.47  131.83   1
   0  -5 -12  623.85  122.46   1
   0   5  13 1130.67  344.35   1
   0   5  13 1089.17  351.80   1
   0   5  13 1380.98  198.75   1
   0  -5 -13 1099.46  191.00   1
   0   5  14  514.35  112.23   1
   0  -5 -14  441.91  100.06   1
   0   5  15   85.64   69.49   1
   0  -5 -15   31.00   60.26   1
   0   6   0 4432.98  774.24   1
   0   6   0 3706.37  494.11   1
   0   6   0 3593.40  494.32   1
   0  -6   0 1902.84  755.45   1
   0  -6   0 2895.60  496.62   1
   0   6   1 2621.38  511.02   1
   0   6   1 2098.74  320.99   1
   0   6   1 2418.79  322.72   1
   0  -6  -1 1748.25  489.25   1
   0  -6  -1 2027.26  323.64   1
   0   6   2  668.10  200.23   1
   0   6   2  510.82   89.03   1
   0   6   2  550.20   90.12   1
   0  -6  -2  516.90  145.14   1
   0  -6  -2  490.04   90.79   1
   0   6   3 2817.61  518.95   1
   0   6   3 2504.66  329.17   1
   0  -6  -3 2250.00  498.93   1
   0  -6  -3 1904.84  327.76   1
   0   6   4  931.29  251.10   1
   0   6   4  923.44  141.60   1
   0   6   4  867.44  142.37   1
   0  -6  -4  996.34  214.34   1
   0  -6  -4  837.77  141.13   1
   0   6   5  111.01  165.59   1
   0   6   5  263.49   60.43   1
   0  -6  -5  300.13  109.45   1
   0  -6  -5  280.13   58.86   1
   0   6   6  211.87  170.60   1
   0   6   6  371.04   74.59   1
   0  -6  -6  593.00  136.35   1
   0  -6  -6  352.17   71.22   1
   0   6   7 3816.77  931.22   1
   0   6   7 4061.46  602.91   1
   0  -6  -7 4351.25  923.22   1
   0  -6  -7 4178.88  601.86   1
   0   6   8 5148.96  959.47   1
   0   6   8 3946.62  605.84   1
   0  -6  -8 4926.27  929.50   1
   0  -6  -8 4126.80  605.04   1
   0   6   9 4037.30  640.06   1
   0   6   9 2306.64  381.22   1
   0  -6  -9 4566.62  619.16   1
   0  -6  -9 2413.22  380.85   1
   0   6  10  581.52  350.63   1
   0   6  10  319.55   78.34   1
   0  -6 -10  567.30  217.66   1
   0  -6 -10  401.67   81.57   1
   0   6  11  553.84  437.43   1
   0   6  11   48.31   57.74   1
   0  -6 -11  192.09  198.42   1
   0  -6 -11   69.61   50.24   1
   0   6  12 1402.25  432.13   1
   0   6  12  762.43  141.56   1
   0  -6 -12  667.49  127.39   1
   0   6  13 3957.02  965.68   1
   0   6  13 4300.07  604.78   1
   0  -6 -13 3928.50  598.07   1
   0   6  14  690.39  508.76   1
   0   6  14 1132.95  436.69   1
   0   6  14 1736.08  253.39   1
   0  -6 -14 1454.05  238.32   1
   0   7   0 8864.46 1295.18   1
   0   7   0 5666.68  825.42   1
   0   7   0 6104.90  826.14   1
   0  -7   0 4425.83 1280.14   1
   0  -7   0 5256.69  828.78   1
   0   7   1 9089.61 1286.02   1
   0   7   1 5557.93  818.04   1
   0  -7  -1 4844.55 1266.54   1
   0   7   236702.93 5383.24   1
   0   7   225532.16 3443.23   1
   0   7   223092.37 3443.32   1
   0  -7  -223060.82 5370.77   1
   0  -7  -223144.91 3443.94   1
   0   7   336044.25 5294.71   1
   0   7   324699.95 3386.16   1
   0   7   323949.26 3387.32   1
   0  -7  -326720.05 5283.19   1
   0  -7  -321113.84 3387.14   1
   0   7   414498.98 2470.60   1
   0   7   412450.20 1582.21   1
   0   7   410746.76 1581.13   1
   0  -7  -413408.40 2459.56   1
   0  -7  -4 9431.04 1581.00   1
   0   7   5 1817.26  408.24   1
   0   7   5 1718.58  230.30   1
   0   7   5 1474.72  232.08   1
   0  -7  -5 2376.51  367.11   1
   0  -7  -5 1208.78  230.35   1
   0   7   6 2445.66  708.66   1
   0   7   6 3006.07  432.05   1
   0   7   6 2810.73  432.68   1
   0  -7  -6 3805.84  669.26   1
   0  -7  -6 2883.35  432.32   1
   0   7   713185.52 2652.74   1
   0   7   711850.50 1698.74   1
   0  -7  -713890.50 2640.73   1
   0  -7  -711420.63 1697.25   1
   0   7   828909.18 5736.38   1
   0   7   824848.83 3674.29   1
   0  -7  -830634.58 5731.26   1
   0  -7  -825522.94 3672.21   1
   0   7   921095.65 3224.47   1
   0   7   912684.37 2053.09   1
   0  -7  -924929.47 3206.76   1
   0  -7  -913989.67 2051.76   1
   0   7  10 1029.97  188.81   1
   0  -7 -10 2124.54  365.70   1
   0  -7 -10 1211.17  190.33   1
   0   7  11  501.22  521.81   1
   0   7  11  246.68   74.41   1
   0  -7 -11  364.51  208.02   1
   0  -7 -11  293.69   70.97   1
   0   7  12 4143.02  877.15   1
   0   7  12 3279.28  477.02   1
   0  -7 -12 3087.23  473.89   1
   0   7  1312358.23 2285.60   1
   0   7  13 9742.23 1405.83   1
   0  -7 -13 9564.85 1400.11   1
   0   7  14 5512.65  791.70   1
   0  -7 -14 5305.81  786.06   1
   0   8   0 1276.19  357.59   1
   0   8   0  866.34  136.27   1
   0   8   0  867.82  139.28   1
   0  -8   0  684.10  229.32   1
   0  -8   0  754.58  140.70   1
   0   8   1 4636.99  747.09   1
   0   8   1 3394.42  461.22   1
   0   8   1 3076.78  460.82   1
   0  -8  -1 2416.98  710.44   1
   0  -8  -1 2918.79  464.18   1
   0   8   233400.51 5628.38   1
   0   8   226069.84 3600.33   1
   0   8   224194.89 3600.92   1
   0  -8  -223296.88 5616.83   1
   0   8   355884.32 8923.44   1
   0   8   347616.58 5705.30   1
   0   8   340681.98 5705.46   1
   0  -8  -344730.66 8912.77   1
   0  -8  -329274.52 5704.72   1
   0   8   431747.94 4674.69   1
   0   8   421870.89 2988.15   1
   0   8   419007.66 2987.23   1
   0  -8  -427707.94 4663.39   1
   0  -8  -420509.50 2988.49   1
   0   8   5 1616.31  389.70   1
   0   8   5 1416.64  205.21   1
   0   8   5 1315.19  206.59   1
   0  -8  -5 1853.45  337.96   1
   0  -8  -5 1177.53  206.57   1
   0   8   6  495.88  278.48   1
   0   8   6  530.38   96.64   1
   0   8   6  540.59   99.77   1
   0  -8  -6  897.55  195.78   1
   0  -8  -6  547.49  101.05   1
   0   8   7 6012.88 1449.45   1
   0   8   7 6768.08  925.68   1
   0   8   7 5887.92  926.80   1
   0  -8  -7 7881.01 1439.14   1
   0  -8  -7 6289.25  925.97   1
   0   8   824245.84 4528.31   1
   0   8   820244.80 2896.41   1
   0   8   818842.69 2898.43   1
   0  -8  -826197.16 4518.95   1
   0  -8  -820345.39 2896.77   1
   0   8   919577.71 2989.34   1
   0   8   911523.93 1891.53   1
   0  -8  -921803.78 2957.10   1
   0  -8  -913207.34 1890.62   1
   0   8  10 4859.37  834.21   1
   0   8  10 2342.27  417.27   1
   0  -8 -10 5400.25  703.66   1
   0  -8 -10 2818.50  416.72   1
   0   8  11  832.50  600.93   1
   0   8  11  295.56   84.06   1
   0  -8 -11  381.41  283.76   1
   0  -8 -11  410.44   82.56   1
   0   8  12 1018.05  604.50   1
   0   8  12 1196.79  209.76   1
   0  -8 -12 1793.66  436.57   1
   0  -8 -12 1255.45  203.36   1
   0   8  13 3377.01  490.13   1
   0  -8 -13 3176.64  483.24   1
   0   9   0  246.80  298.56   1
   0   9   0  134.84   51.28   1
   0   9   0  146.59   51.04   1
   0  -9   0  177.59  159.27   1
   0  -9   0  134.08   58.37   1
   0   9   1  956.88  381.29   1
   0   9   1  641.56  103.53   1
   0   9   1  530.50  104.38   1
   0  -9  -1  545.98  199.34   1
   0  -9  -1  531.89  109.97   1
   0   9   2 1923.74  445.91   1
   0   9   2 1540.93  233.77   1
   0   9   2 1551.38  236.98   1
   0  -9  -2 1421.88  373.79   1
   0  -9  -2 1461.48  238.84   1
   0   9   311033.21 1916.20   1
   0   9   3 9038.92 1219.54   1
   0   9   3 7916.15 1219.25   1
   0  -9  -3 8708.00 1895.49   1
   0  -9  -3 8308.67 1221.08   1
   0   9   4 6507.56 1185.80   1
   0   9   4 5694.41  745.89   1
   0   9   4 4901.11  745.62   1
   0  -9  -4 6582.85 1160.38   1
   0  -9  -4 4546.93  747.43   1
   0   9   5  346.76  348.30   1
   0   9   5  511.93   92.79   1
   0   9   5  382.64   91.16   1
   0  -9  -5  710.62  197.22   1
   0  -9  -5  403.69   96.82   1
   0   9   6  419.59  285.27   1
   0   9   6  386.58   82.80   1
   0   9   6  256.14   81.27   1
   0  -9  -6  375.86  170.97   1
   0  -9  -6  382.59   94.83   1
   0   9   7  267.85  349.09   1
   0   9   7  169.53   74.63   1
   0   9   7  183.26   84.37   1
   0  -9  -7  148.52  144.93   1
   0  -9  -7  262.97   84.58   1
   0   9   8 3154.06  686.21   1
   0   9   8 2337.77  358.14   1
   0   9   8 2368.26  360.48   1
   0  -9  -8 3251.75  572.52   1
   0  -9  -8 2268.24  356.10   1
   0   9   9 1939.10  562.36   1
   0   9   9 1480.93  221.09   1
   0   9   9 1193.97  223.46   1
   0  -9  -9 2248.64  406.82   1
   0  -9  -9 1427.12  224.78   1
   0   9  10  587.42  635.15   1
   0   9  10  268.30   70.63   1
   0   9  10  262.94   82.75   1
   0  -9 -10  614.63  326.56   1
   0  -9 -10  246.84   72.92   1
   0   9  11  128.50  631.53   1
   0   9  11   60.70   67.87   1
   0   9  11  160.47   84.45   1
   0  -9 -11   -1.89  247.64   1
   0  -9 -11   94.99   69.81   1
   0   9  12   76.16  584.32   1
   0   9  12  119.79  100.25   1
   0  -9 -12  293.04  272.68   1
   0  -9 -12  186.55   76.92   1
   0  10   0  410.89  293.89   1
   0  10   0  134.47   59.24   1
   0 -10   0  201.43  184.70   1
   0  10   1  141.00  316.15   1
   0  10   1  209.00   62.93   1
   0  10   1  231.94   74.24   1
   0 -10  -1  238.12  190.36   1
   0 -10  -1  199.31   70.96   1
   0  10   2  899.12  350.49   1
   0  10   2  429.91   89.18   1
   0 -10  -2  434.61  205.86   1
   0 -10  -2  371.90   98.71   1
   0  10   3 2085.65  476.92   1
   0  10   3 1270.89  223.57   1
   0 -10  -3 1770.92  369.94   1
   0 -10  -3 1536.07  230.11   1
   0  10   4 3015.20  548.43   1
   0  10   4 1779.29  238.70   1
   0  10   4 1255.60  239.52   1
   0 -10  -4 1969.03  389.43   1
   0 -10  -4 1398.11  241.34   1
   0  10   5  685.98  354.54   1
   0  10   5  812.11  111.83   1
   0  10   5  561.59  109.41   1
   0 -10  -5  799.63  216.22   1
   0 -10  -5  276.74  120.10   1
   0  10   6  389.58  374.61   1
   0  10   6  696.51  123.22   1
   0  10   6  642.92  127.98   1
   0 -10  -6  667.32  215.44   1
   0 -10  -6  606.67  125.36   1
   0  10   7 1204.57  468.12   1
   0  10   7 1444.05  215.68   1
   0  10   7 1261.08  222.08   1
   0 -10  -7 1554.45  340.99   1
   0 -10  -7 1309.46  214.64   1
   0  10   8 1162.01  552.61   1
   0  10   8  825.67  149.37   1
   0  10   8  748.65  148.02   1
   0 -10  -8 1277.21  292.63   1
   0 -10  -8  793.98  153.60   1
   0  10   9  581.27  548.16   1
   0  10   9   66.31   61.24   1
   0  10   9   88.22   59.13   1
   0 -10  -9  177.91  264.52   1
   0 -10  -9   83.76   84.08   1
   0  10  10  160.01  659.06   1
   0  10  10  140.25   73.04   1
   0  10  10   67.36   64.35   1
   0 -10 -10   23.61  349.19   1
   0 -10 -10   86.26   58.76   1
   0  10  11  701.83  710.06   1
   0  10  11  656.42  124.73   1
   0  10  11  613.79  133.30   1
   0 -10 -11 1446.52  434.05   1
   0 -10 -11  634.92  130.02   1
   0  11   0 8171.23 1215.99   1
   0  11   0 4604.95  723.60   1
   0 -11   0 6377.50 1144.87   1
   0  11   114536.35 1368.93   1
   0  11   1 4762.37  821.74   1
   0 -11  -1 9694.60 1303.98   1
   0  11   212110.40 1504.22   1
   0  11   2 6833.74  913.04   1
   0  11   2 4835.60  912.21   1
   0 -11  -2 7450.46 1433.50   1
   0 -11  -2 7268.84  920.03   1
   0  11   3 7458.46  910.39   1
   0  11   3 3670.61  498.68   1
   0  11   3 2591.67  498.37   1
   0 -11  -3 5253.52  804.35   1
   0 -11  -3 3535.36  504.28   1
   0  11   4 2652.10  543.53   1
   0  11   4 1013.17  169.18   1
   0  11   4  882.80  171.50   1
   0 -11  -4 1427.23  331.46   1
   0 -11  -4  988.39  180.97   1
   0  11   5 3448.75  659.86   1
   0  11   5 2166.47  297.03   1
   0  11   5 1527.92  296.69   1
   0 -11  -5 2938.25  515.20   1
   0 -11  -5 1839.22  300.32   1
   0  11   610657.31 1687.05   1
   0  11   6 7608.75 1029.36   1
   0  11   6 6016.27 1029.96   1
   0 -11  -6 9777.35 1607.40   1
   0  11   713134.02 2322.85   1
   0  11   710007.86 1433.71   1
   0  11   7 9156.20 1435.71   1
   0 -11  -713592.72 2239.16   1
   0 -11  -710014.37 1435.70   1
   0  11   8 6308.24 1162.49   1
   0  11   8 4908.46  622.88   1
   0  11   8 3312.57  623.12   1
   0 -11  -8 6980.72  998.50   1
   0 -11  -8 3930.45  621.72   1
   0  11   9  686.35  620.54   1
   0  11   9  683.83  127.28   1
   0  11   9  347.84  124.98   1
   0 -11  -9 1439.87  346.17   1
   0 -11  -9  634.40  128.14   1
   0  12   0 2961.30  460.61   1
   0  12   0  756.92  145.32   1
   0  12   0  466.03  139.82   1
   0 -12   0 1880.68  340.69   1
   0  12   1 9926.03  951.29   1
   0  12   1 4533.69  530.92   1
   0 -12  -1 7369.70  865.03   1
   0  12   216149.11 1560.07   1
   0  12   2 8358.73  948.31   1
   0  12   2 3485.30  941.01   1
   0 -12  -210020.51 1487.98   1
   0 -12  -2 6892.98  950.78   1
   0  12   3 5654.72  855.06   1
   0  12   3 2780.92  473.86   1
   0 -12  -3 4335.11  763.32   1
   0 -12  -3 3384.10  484.91   1
   0  12   4  762.40  447.46   1
   0  12   4  522.42  114.82   1
   0  12   4  267.18  111.46   1
   0 -12  -4  684.15  261.41   1
   0 -12  -4  491.88  119.63   1
   0  12   5  929.19  449.59   1
   0  12   5  246.79   84.50   1
   0  12   5  131.72   90.67   1
   0 -12  -5  517.14  241.67   1
   0 -12  -5  285.12  110.49   1
   0  12   6 3988.35  678.80   1
   0  12   6 2108.81  308.68   1
   0  12   6 1742.81  312.55   1
   0 -12  -6 3569.24  523.92   1
   0 -12  -6 1755.52  316.43   1
   1 -11   0   51.63  242.26   1
  -1  11   0  121.96  375.80   1
  -1  11   0   -0.88   60.96   1
   1 -11   1 2180.07  394.21   1
  -1  11  -1 3448.66  499.17   1
  -1  11  -1 1494.94  217.04   1
  -1  11  -1  883.70  209.11   1
   1 -11   2 2115.92  402.12   1
  -1  11  -2 2781.71  452.71   1
  -1  11  -2  995.65  180.84   1
  -1  11  -2  850.48  179.40   1
   1 -11   3   13.92  291.66   1
  -1  11  -3 -107.78  347.75   1
  -1  11  -3    0.00   75.28   1
  -1  11  -3   45.53   94.88   1
   1 -10   0  -60.03  173.44   1
   1 -10   0   20.36   76.58   1
  -1  10   0  119.85  277.48   1
  -1  10   0   62.84   62.07   1
  -1  10   0   37.12   62.01   1
   1 -10   1 3374.75  675.22   1
  -1  10  -1 5064.44  735.11   1
  -1  10  -1 2929.49  431.46   1
  -1  10  -1 2673.91  433.02   1
   1 -10   2 8013.48 1890.12   1
  -1  10  -213367.97 1922.80   1
  -1  10  -2 8854.10 1217.45   1
  -1  10  -2 7788.06 1216.80   1
   1 -10   3 2147.04  458.77   1
  -1  10  -3 2749.08  491.92   1
  -1  10  -3 1936.72  275.46   1
  -1  10  -3 1481.73  275.09   1
   1 -10   4  269.89  263.17   1
  -1  10  -4  178.52  327.43   1
  -1  10  -4  111.49   85.34   1
  -1  10  -4  119.00   80.99   1
   1 -10   5  157.76  336.28   1
   1 -10   5  137.40   99.04   1
  -1  10  -5   34.69  348.06   1
  -1  10  -5  127.10   86.12   1
  -1  10  -5  109.87  111.79   1
   1 -10   6  345.90  299.20   1
   1 -10   6   80.45  114.54   1
  -1  10  -6  234.93  355.39   1
  -1  10  -6  137.66  112.86   1
  -1  10  -6  278.08  108.57   1
   1  -9   0 2404.14  616.01   1
   1  -9   0 2713.87  402.85   1
  -1   9   0 3851.34  644.56   1
  -1   9   0 2608.94  394.41   1
  -1   9   0 2601.96  396.07   1
   1  -9   1   57.76  180.84   1
  -1   9  -1  376.84  253.86   1
  -1   9  -1   60.39   52.02   1
  -1   9  -1   48.59   65.28   1
   1  -9   2  192.07  181.62   1
  -1   9  -2  280.84  267.11   1
  -1   9  -2  159.06   65.08   1
  -1   9  -2   76.62   68.42   1
   1  -9   3  143.70  182.02   1
   1  -9   3  155.08   83.28   1
  -1   9  -3   87.01  257.29   1
  -1   9  -3  118.96   64.47   1
   1  -9   4  158.86  180.90   1
   1  -9   4  127.95   85.51   1
  -1   9  -4  437.48  245.95   1
  -1   9  -4  189.15   72.62   1
  -1   9  -4  214.80   84.11   1
   1  -9   5  925.29  258.29   1
   1  -9   5  722.67  153.12   1
  -1   9  -5  935.46  384.68   1
  -1   9  -5  873.04  153.43   1
  -1   9  -5  780.07  148.87   1
   1  -9   6  297.73  239.69   1
   1  -9   6  495.84  114.22   1
  -1   9  -6  601.35  373.65   1
  -1   9  -6  317.68   99.90   1
  -1   9  -6  374.80  107.77   1
   1  -9   7  176.68  241.45   1
   1  -9   7  259.46  103.64   1
  -1   9  -7  280.67  354.91   1
  -1   9  -7  173.59  103.09   1
  -1   9  -7  159.37   96.31   1
   1  -9   8  221.06  224.64   1
   1  -9   8  112.34   99.98   1
  -1   9  -8  112.44  519.20   1
  -1   9  -8  127.15   98.96   1
   1  -8   0 2037.54  587.94   1
   1  -8   0 2392.14  378.76   1
  -1   8   0 2959.82  608.18   1
  -1   8   0 2442.63  375.25   1
  -1   8   0 2760.95  378.07   1
   1  -8   1 2561.73  636.50   1
   1  -8   1 2654.32  410.80   1
  -1   8  -1 3237.99  651.52   1
  -1   8  -1 2750.57  406.32   1
  -1   8  -1 2812.94  408.36   1
   1  -8   2 1796.21  443.48   1
   1  -8   2 1830.76  282.00   1
  -1   8  -2 2996.68  480.48   1
  -1   8  -2 1773.04  276.88   1
  -1   8  -2 1803.05  280.41   1
   1  -8   3 4053.68  913.05   1
   1  -8   3 3807.84  588.20   1
  -1   8  -3 4631.98  930.47   1
  -1   8  -3 4042.22  587.40   1
  -1   8  -3 4131.55  588.02   1
   1  -8   4 1357.57  349.29   1
   1  -8   4 1231.59  218.30   1
  -1   8  -4 1544.45  375.02   1
  -1   8  -4 1305.17  213.80   1
  -1   8  -4 1476.55  216.08   1
   1  -8   5   92.35  234.57   1
   1  -8   5   87.86   64.85   1
  -1   8  -5  320.78  282.47   1
  -1   8  -5   72.36   63.74   1
  -1   8  -5   37.72   74.10   1
   1  -8   6  -62.77  232.14   1
  -1   8  -6  245.10  315.85   1
  -1   8  -6   19.12   62.78   1
  -1   8  -6   62.81   71.53   1
   1  -8   7  958.74  303.39   1
   1  -8   7 1037.68  192.18   1
  -1   8  -7 1842.27  466.89   1
   1  -8   8 2655.36  707.27   1
   1  -8   8 2923.66  450.97   1
  -1   8  -8 3563.14  775.94   1
  -1   8  -8 3032.00  455.17   1
   1  -8   9 1155.27  335.58   1
   1  -8   9  887.00  171.82   1
  -1   8  -9  880.60  539.65   1
  -1   8  -9  858.81  172.02   1
   1  -7   0 7231.54 1592.19   1
   1  -7   0 6004.29 1026.86   1
  -1   7   010281.95 1603.29   1
  -1   7   0 7167.42 1024.23   1
  -1   7   0 7659.54 1024.44   1
   1  -7   1 6161.83 1272.28   1
   1  -7   1 5292.94  817.05   1
   1  -7   1 5368.14  820.25   1
  -1   7  -1 7882.81 1279.16   1
  -1   7  -1 5983.94  816.87   1
  -1   7  -1 5665.21  816.75   1
   1  -7   2  148.06  180.60   1
   1  -7   2  112.55   55.71   1
  -1   7  -2  189.58  193.16   1
  -1   7  -2   67.16   46.34   1
  -1   7  -2  162.61   51.17   1
   1  -7   3 5158.61 1055.21   1
   1  -7   3 4928.22  677.79   1
  -1   7  -3 6024.93 1064.11   1
  -1   7  -3 4319.22  676.12   1
  -1   7  -3 4588.80  676.70   1
   1  -7   4  123.63  179.29   1
   1  -7   4    8.59   52.92   1
  -1   7  -4 -163.04  205.36   1
  -1   7  -4   56.57   47.63   1
  -1   7  -4   26.53   44.71   1
   1  -7   5 4690.76 1056.66   1
   1  -7   5 4763.24  683.70   1
  -1   7  -5 5299.08 1062.25   1
  -1   7  -5 4852.35  683.33   1
  -1   7  -5 4380.86  682.05   1
   1  -7   610827.20 2279.04   1
  -1   7  -614176.35 2291.33   1
  -1   7  -6 9783.22 1464.52   1
  -1   7  -6 9996.71 1464.28   1
   1  -7   7  897.49  282.60   1
   1  -7   7  745.42  141.38   1
  -1   7  -7 1104.19  378.45   1
  -1   7  -7  677.58  140.80   1
   1  -7   8 1175.25  341.59   1
   1  -7   8  966.61  176.37   1
  -1   7  -8 1408.89  450.36   1
  -1   7  -8  963.89  182.10   1
   1  -7   9  643.19  265.37   1
   1  -7   9  820.76  165.19   1
  -1   7  -9  579.68  474.83   1
  -1   7  -9 1053.56  171.59   1
  -1   7  -9  929.35  168.62   1
   1  -7  10  824.67  151.16   1
  -1   7 -10  531.87  534.08   1
  -1   7 -10  854.76  161.52   1
   1  -7  11 1692.03  650.55   1
   1  -7  11 2709.34  388.42   1
  -1   7 -11 1062.81  745.65   1
  -1   7 -11 2370.11  387.52   1
  -1   7 -11 2860.97  398.36   1
   1  -6   013992.71 3205.57   1
   1  -6   013863.21 2059.29   1
   1  -6   013059.95 2061.12   1
  -1   6   019693.10 3215.45   1
  -1   6   014957.89 2059.19   1
  -1   6   015191.85 2059.43   1
   1  -6   122230.02 4857.82   1
   1  -6   120192.47 3115.39   1
   1  -6   121622.87 3117.89   1
  -1   6  -127891.31 4861.76   1
  -1   6  -121324.28 3114.41   1
  -1   6  -123482.09 3114.46   1
   1  -6   2 3797.86  810.21   1
   1  -6   2 3482.98  521.05   1
  -1   6  -2 3755.04  812.19   1
  -1   6  -2 3637.90  520.16   1
  -1   6  -2 3548.63  520.47   1
   1  -6   3 1689.66  395.22   1
   1  -6   3 1537.04  244.47   1
  -1   6  -3 2287.32  414.57   1
  -1   6  -3 1609.35  243.21   1
  -1   6  -3 1615.29  244.20   1
   1  -6   4 1311.17  317.36   1
  -1   6  -4 1566.04  326.71   1
  -1   6  -4 1172.40  188.85   1
   1  -6   5 2998.12  678.34   1
   1  -6   5 3070.69  438.17   1
  -1   6  -5 3642.96  681.54   1
  -1   6  -5 2778.64  437.18   1
  -1   6  -5 2940.94  438.52   1
   1  -6   615122.74 2880.62   1
   1  -6   612935.59 1847.57   1
  -1   6  -617582.04 2886.30   1
  -1   6  -612408.68 1847.47   1
  -1   6  -612347.28 1849.22   1
   1  -6   7 4019.92  872.04   1
   1  -6   7 3924.12  559.26   1
  -1   6  -7 5193.45  894.56   1
  -1   6  -7 3602.88  557.83   1
  -1   6  -7 3540.61  560.56   1
   1  -6   8   44.79   61.92   1
  -1   6  -8   87.22  271.59   1
  -1   6  -8  149.63   68.61   1
  -1   6  -8   66.72   69.23   1
   1  -6   9  885.32  297.48   1
  -1   6  -9 1311.76  367.63   1
  -1   6  -9  798.58  154.17   1
  -1   6  -9  845.15  157.21   1
   1  -6  10  204.55  190.59   1
   1  -6  10   31.85   79.77   1
  -1   6 -10  108.10  423.95   1
  -1   6 -10   35.34   58.13   1
  -1   6 -10  -49.23   92.70   1
   1  -6  11  348.98  314.13   1
   1  -6  11 1019.60  172.51   1
  -1   6 -11  394.61  483.47   1
  -1   6 -11  876.63  166.72   1
  -1   6 -11 1085.97  183.13   1
   1  -6  12  400.27  363.74   1
   1  -6  12 1173.90  203.44   1
  -1   6 -12 1087.85  207.10   1
  -1   6 -12 1390.76  214.97   1
   1  -5   0  -12.27  122.17   1
   1  -5   0   45.64   32.21   1
   1  -5   0   45.61   31.90   1
  -1   5   0  136.21  170.15   1
  -1   5   0   36.02   25.23   1
  -1   5   0   40.02   29.98   1
   1  -5   1 4926.08 1205.99   1
   1  -5   1 5182.99  781.36   1
   1  -5   1 5354.59  783.66   1
  -1   5  -1 5971.09 1209.60   1
  -1   5  -1 5288.46  780.12   1
  -1   5  -1 5853.30  781.62   1
   1  -5   2  122.94  138.59   1
   1  -5   2   77.89   34.74   1
  -1   5  -2   18.52  136.03   1
  -1   5  -2   82.58   33.14   1
  -1   5  -2   80.77   35.72   1
   1  -5   3 5948.38 1391.13   1
   1  -5   3 6077.80  900.03   1
  -1   5  -3 8002.37 1402.42   1
  -1   5  -3 6429.95  898.60   1
  -1   5  -3 6014.17  899.58   1
   1  -5   4 7480.30 1693.17   1
   1  -5   4 7679.27 1095.17   1
  -1   5  -4 9603.97 1702.09   1
  -1   5  -4 7349.94 1093.48   1
   1  -5   5 1798.31  451.33   1
   1  -5   5 2006.49  295.20   1
  -1   5  -5 2576.20  462.31   1
  -1   5  -5 1843.13  294.62   1
  -1   5  -5 1988.67  297.43   1
   1  -5   6  140.82  118.81   1
   1  -5   6   81.87   39.54   1
  -1   5  -6  109.16  154.26   1
  -1   5  -6  120.89   43.49   1
  -1   5  -6  165.62   44.45   1
   1  -5   7  -84.56  173.54   1
   1  -5   7   -1.78   47.58   1
  -1   5  -7  -80.54  211.55   1
  -1   5  -7   -9.36   55.47   1
  -1   5  -7   38.79   48.13   1
   1  -5   8 1319.56  368.61   1
   1  -5   8 1436.50  224.87   1
  -1   5  -8 1480.65  386.37   1
  -1   5  -8 1420.51  228.22   1
  -1   5  -8 1414.02  227.80   1
   1  -5   9  607.13  233.42   1
   1  -5   9  698.97  131.33   1
  -1   5  -9  891.38  276.02   1
  -1   5  -9  702.22  134.24   1
  -1   5  -9  742.27  135.93   1
   1  -5  10  191.59  167.47   1
   1  -5  10  280.04   82.29   1
  -1   5 -10  230.33  258.82   1
  -1   5 -10  306.36   75.37   1
  -1   5 -10  257.41   87.90   1
   1  -5  11  789.69  337.91   1
   1  -5  11 1379.32  211.86   1
  -1   5 -11  870.49  383.78   1
  -1   5 -11 1254.68  203.75   1
  -1   5 -11 1270.08  218.47   1
   1  -5  12  511.03  263.08   1
   1  -5  12  845.69  149.42   1
  -1   5 -12  256.29  352.37   1
  -1   5 -12  898.22  162.14   1
  -1   5 -12  839.72  165.55   1
   1  -5  13  264.22  103.20   1
  -1   5 -13  316.32  106.83   1
  -1   5 -13  288.97  121.05   1
   1  -4   0 1674.03  384.12   1
   1  -4   0 1702.51  248.20   1
   1  -4   0 1470.71  248.79   1
  -1   4   0 2079.66  396.13   1
  -1   4   0 1657.38  246.49   1
  -1   4   0 1712.17  247.04   1
   1  -4   1 3546.52 1008.53   1
   1  -4   1 4793.51  657.15   1
   1  -4   1 4729.89  659.49   1
  -1   4  -1 5181.28 1012.89   1
  -1   4  -1 4216.12  655.69   1
   1  -4   2 4651.52 1095.16   1
   1  -4   2 5295.16  712.72   1
   1  -4   2 4525.83  713.57   1
  -1   4  -2 5111.32 1096.54   1
  -1   4  -2 4827.17  710.90   1
  -1   4  -2 5010.19  712.53   1
   1  -4   3  732.46  240.94   1
  -1   4  -3 1227.77  264.89   1
  -1   4  -3  884.09  150.01   1
  -1   4  -3 1056.90  153.65   1
   1  -4   4  323.09  172.43   1
   1  -4   4  425.86   81.84   1
  -1   4  -4  673.06  176.53   1
  -1   4  -4  415.00   81.09   1
  -1   4  -4  521.41   84.93   1
   1  -4   5  538.09  194.24   1
   1  -4   5  654.09  107.72   1
  -1   4  -5  757.96  215.24   1
  -1   4  -5  597.19  107.37   1
  -1   4  -5  636.83  111.22   1
   1  -4   6 3295.05  752.55   1
   1  -4   6 3453.52  490.75   1
  -1   4  -6 4097.48  752.35   1
  -1   4  -6 3216.46  491.02   1
  -1   4  -6 3222.08  492.82   1
   1  -4   7 6081.80 1198.57   1
   1  -4   7 5382.21  776.41   1
  -1   4  -7 7203.72 1203.25   1
  -1   4  -7 4834.53  777.50   1
   1  -4   8  801.29  254.49   1
   1  -4   8  978.45  153.40   1
  -1   4  -8  908.18  155.47   1
  -1   4  -8  948.11  154.80   1
   1  -4   9  442.54  213.09   1
   1  -4   9  493.58   98.18   1
  -1   4  -9  819.62  225.12   1
  -1   4  -9  467.01   93.87   1
   1  -4  10  174.86  185.91   1
   1  -4  10  519.17   93.42   1
  -1   4 -10  365.88   97.82   1
   1  -4  11  372.61   95.11   1
  -1   4 -11  204.85  200.64   1
  -1   4 -11  346.03   94.43   1
   1  -4  12 3463.84  527.13   1
  -1   4 -12 3670.92  530.66   1
   1  -4  13 1380.13  214.83   1
  -1   4 -13 1288.43  224.27   1
   1  -3   0 3515.78  860.62   1
   1  -3   0 3761.33  561.02   1
   1  -3   0 3750.10  561.68   1
  -1   3   0 3925.21  862.43   1
  -1   3   0 4002.19  560.47   1
  -1   3   0 3935.26  560.29   1
   1  -3   1   46.24  147.24   1
   1  -3   1   52.10   31.41   1
   1  -3   1   10.70   27.99   1
  -1   3  -1    0.79  143.24   1
  -1   3  -1   31.01   22.69   1
  -1   3  -1   43.68   33.86   1
   1  -3   2  792.71  208.32   1
   1  -3   2  710.37  117.48   1
   1  -3   2  754.22  119.39   1
  -1   3  -2  704.45  116.21   1
   1  -3   3  176.65  143.80   1
   1  -3   3  156.84   42.69   1
  -1   3  -3  201.45  141.22   1
  -1   3  -3  187.72   43.33   1
  -1   3  -3  180.48   46.02   1
   1  -3   415637.28 3508.20   1
   1  -3   416729.51 2257.66   1
  -1   3  -418148.77 3509.06   1
  -1   3  -414803.55 2256.01   1
  -1   3  -415736.67 2259.48   1
   1  -3   521568.29 4327.45   1
   1  -3   520205.86 2780.16   1
  -1   3  -522792.05 4328.06   1
  -1   3  -519077.12 2780.87   1
  -1   3  -518380.86 2781.43   1
   1  -3   6  785.60  183.30   1
   1  -3   6  548.10  106.93   1
  -1   3  -6  736.28  188.72   1
  -1   3  -6  639.93  108.98   1
   1  -3   7 2188.45  494.70   1
   1  -3   7 2193.97  325.99   1
  -1   3  -7 2759.15  499.79   1
  -1   3  -7 2044.29  328.95   1
   1  -3   8  867.46  227.26   1
   1  -3   8  722.12  135.06   1
  -1   3  -8 1309.66  233.67   1
  -1   3  -8  816.55  137.74   1
   1  -3   9 4880.00 1036.78   1
   1  -3   9 4703.03  675.07   1
  -1   3  -9 6343.33 1041.90   1
  -1   3  -9 4287.98  674.58   1
   1  -3  1011770.38 1708.57   1
  -1   3 -1013005.27 2651.40   1
   1  -3  11 3427.01  492.89   1
  -1   3 -11 3266.85  493.25   1
   1  -3  12  209.05   72.93   1
  -1   3 -12  252.71   97.92   1
   1  -3  13 1140.27  181.45   1
  -1   3 -13 1055.17  184.84   1
   1  -3  14  241.07   78.43   1
  -1   3 -14  204.82   94.08   1
   1  -2   045255.3212805.75   1
   1  -2   059720.62 8198.96   1
  -1   2   048626.5812806.19   1
   1  -2   1  504.15  190.75   1
   1  -2   1  564.64  102.34   1
   1  -2   1  583.64  103.86   1
  -1   2  -1  877.01  205.49   1
  -1   2  -1  642.39  100.62   1
  -1   2  -1  655.64  102.52   1
   1  -2   219060.60 4056.07   1
   1  -2   218427.98 2608.92   1
  -1   2  -218348.92 4058.02   1
  -1   2  -217966.75 2607.70   1
  -1   2  -218533.86 2610.80   1
   1  -2   3  219.32  149.76   1
   1  -2   3  172.02   44.70   1
  -1   2  -3  201.36  146.34   1
  -1   2  -3  156.44   42.14   1
  -1   2  -3  199.55   47.42   1
   1  -2   412404.71 2490.48   1
   1  -2   412319.97 1607.96   1
  -1   2  -411306.74 2491.52   1
  -1   2  -410101.41 1607.10   1
   1  -2   529512.78 6084.97   1
   1  -2   528113.76 3906.45   1
  -1   2  -529171.93 6087.93   1
  -1   2  -526174.09 3906.85   1
   1  -2   6 7235.19 1465.10   1
   1  -2   6 6457.94  953.40   1
  -1   2  -6 8160.89 1467.76   1
  -1   2  -6 6411.30  954.45   1
   1  -2   7 2774.15  605.69   1
   1  -2   7 2658.21  401.96   1
  -1   2  -7 3325.45  608.38   1
  -1   2  -7 2652.71  404.26   1
   1  -2   8 3928.45  773.38   1
   1  -2   8 3481.34  506.70   1
  -1   2  -8 4741.26  772.24   1
  -1   2  -8 3139.50  506.22   1
   1  -2   9  964.08  256.70   1
   1  -2   9 1116.84  167.27   1
  -1   2  -9 1105.62  253.53   1
  -1   2  -9  960.99  166.15   1
   1  -2  10 3102.20 1096.36   1
   1  -2  10 5231.93  719.06   1
  -1   2 -10 4904.27  718.69   1
   1  -2  11 2867.33  449.04   1
  -1   2 -11 3210.22  450.72   1
   1  -2  12   14.84   52.85   1
  -1   2 -12   29.97   52.01   1
   1  -2  13  401.45   96.21   1
  -1   2 -13  469.38  100.11   1
   1  -2  14   44.41   65.41   1
  -1   2 -14   62.82   69.14   1
   1  -1   0 1831.31  534.04   1
   1  -1   0 2275.96  350.19   1
   1  -1   0 2592.65  351.29   1
  -1   1   0 2119.74  533.52   1
  -1   1   0 2320.69  350.40   1
  -1   1   0 2440.18  350.49   1
   1  -1   1  434.67  173.90   1
   1  -1   1  257.47   54.21   1
   1  -1   1  254.01   57.37   1
  -1   1  -1  282.52  153.57   1
  -1   1  -1  311.24   53.95   1
  -1   1  -1  289.24   57.66   1
   1  -1   216267.12 3819.32   1
   1  -1   217805.91 2456.33   1
  -1   1  -214351.98 3819.06   1
  -1   1  -216581.87 2455.89   1
  -1   1  -218020.41 2458.24   1
   1  -1   340127.13 9254.10   1
   1  -1   341251.69 5930.74   1
  -1   1  -337118.77 9256.50   1
  -1   1  -343258.48 5931.03   1
   1  -1   4 1360.72  332.25   1
   1  -1   4 1421.08  217.55   1
  -1   1  -4 1652.10  325.61   1
  -1   1  -4 1376.04  217.82   1
   1  -1   5  759.37  195.28   1
   1  -1   5  663.60  116.14   1
  -1   1  -5  810.92  170.09   1
  -1   1  -5  696.02  119.75   1
   1  -1   6  310.26  126.92   1
   1  -1   6  235.31   62.21   1
  -1   1  -6  388.30  106.98   1
  -1   1  -6  355.90   68.00   1
   1  -1   7 2796.52  734.15   1
   1  -1   7 3304.41  488.49   1
  -1   1  -7 4508.57  738.54   1
  -1   1  -7 3174.50  489.54   1
   1  -1   8 5223.18  742.87   1
  -1   1  -8 5019.41  742.01   1
   1  -1   9 4279.15 1061.25   1
   1  -1   9 4874.76  696.46   1
  -1   1  -9 4740.15  695.92   1
   1  -1  10  853.27  136.20   1
  -1   1 -10  762.33  137.08   1
   1  -1  11  525.85   98.62   1
  -1   1 -11  529.51  108.76   1
   1  -1  12 1148.37  189.82   1
  -1   1 -12 1241.28  190.96   1
   1  -1  13  345.50   72.28   1
  -1   1 -13  279.56   72.96   1
   1  -1  14  298.66   86.87   1
  -1   1 -14  332.72   86.28   1
   1  -1  15  495.42   98.19   1
  -1   1 -15  326.41   95.24   1
   1   0   0    9.05   16.96   1
  -1   0   0    6.57   18.45   1
   1   0   1   36.24   19.94   1
  -1   0  -1   64.42   82.13   1
  -1   0  -1   39.54   23.94   1
   1   0   2 9602.92 2094.17   1
   1   0   2 9778.73 1354.15   1
  -1   0  -2 9294.21 2094.29   1
  -1   0  -2 9128.59 1354.30   1
   1   0   3 5742.23 1228.74   1
   1   0   3 5590.68  802.84   1
  -1   0  -3 5964.62 1228.57   1
  -1   0  -3 5392.83  802.93   1
   1   0   4 3557.20  765.84   1
   1   0   4 3387.61  507.04   1
  -1   0  -4 4600.85  764.99   1
  -1   0  -4 3248.91  508.90   1
   1   0   5 1494.61  288.37   1
   1   0   5 1229.99  196.66   1
  -1   0  -5 1220.09  198.68   1
   1   0   6 2558.56  562.18   1
   1   0   6 2464.83  375.63   1
  -1   0  -6 2574.23  376.01   1
   1   0   7 1483.50  335.84   1
   1   0   7 1587.78  228.73   1
  -1   0  -7 1389.25  227.25   1
   1   0   8  245.07   58.25   1
  -1   0  -8  211.56   54.53   1
   1   0   9  343.68  156.59   1
   1   0   9  566.32  106.86   1
  -1   0  -9  634.77  108.43   1
   1   0  10  791.77  134.71   1
  -1   0 -10  785.99  137.48   1
   1   0  11 4459.69  696.07   1
  -1   0 -11 5073.98  696.06   1
   1   0  12 1385.33  217.90   1
  -1   0 -12 1388.51  216.65   1
   1   0  13  494.59   97.61   1
  -1   0 -13  513.78   96.81   1
   1   0  14 1695.26  265.67   1
  -1   0 -14 1756.80  266.39   1
   1   0  15   21.93   56.20   1
  -1   0 -15   75.38   88.43   1
   1   1   0    5.45   12.41   1
   1   1   0   12.10   11.69   1
  -1  -1   0    2.44   12.22   1
   1   1   1   23.95   15.50   1
   1   1   2 1694.22  240.12   1
  -1  -1  -2 1471.90  241.67   1
   1   1   334289.95 5109.18   1
  -1  -1  -337896.78 5111.75   1
   1   1   418343.46 3082.37   1
   1   1   413256.83 1989.01   1
  -1  -1  -413324.54 1988.87   1
   1   1   5 1412.39  210.22   1
  -1  -1  -5 1280.31  208.03   1
   1   1   6 3062.05  906.83   1
   1   1   6 4496.20  600.23   1
  -1  -1  -6 4001.83  597.40   1
   1   1   7  555.51  178.26   1
   1   1   7  901.01  183.05   1
   1   1   7  818.36  131.30   1
  -1  -1  -7  754.71  127.86   1
   1   1   810842.16 2457.70   1
   1   1   811390.20 1590.20   1
  -1  -1  -810844.34 1589.75   1
   1   1   911819.41 3956.46   1
   1   1   918938.47 2548.48   1
  -1  -1  -918144.96 2548.46   1
   1   1  10 3264.97  477.46   1
  -1  -1 -10 3202.54  475.96   1
   1   1  11  874.67  143.11   1
  -1  -1 -11  815.13  142.49   1
   1   1  12  773.40  137.01   1
  -1  -1 -12  820.18  135.65   1
   1   1  13 2125.56  327.57   1
  -1  -1 -13 2198.13  328.62   1
   1   1  14 6466.82  946.54   1
  -1  -1 -14 6595.89  944.47   1
   1   1  15 2281.18  347.31   1
  -1  -1 -15 2302.96  351.69   1
   1   2   0   -5.81   66.53   1
  -1  -2   0  105.45  102.50   1
   1   2   1 3990.58  768.60   1
   1   2   1 2675.87  507.57   1
  -1  -2  -1 3379.63  768.15   1
  -1  -2  -1 3953.76  505.20   1
   1   2   2  312.92   94.68   1
   1   2   2  178.04   51.50   1
  -1  -2  -2  365.09   84.68   1
  -1  -2  -2  196.62   47.01   1
   1   2   312861.60 2372.30   1
   1   2   3 9042.06 1536.44   1
  -1  -2  -316053.57 2373.23   1
  -1  -2  -310195.33 1532.78   1
   1   2   446369.35 8965.75   1
   1   2   439006.34 5750.05   1
  -1  -2  -440196.91 5746.35   1
   1   2   5  627.17  145.28   1
   1   2   5  621.46  106.37   1
  -1  -2  -5  526.77  103.93   1
   1   2   6 4956.36 1311.36   1
   1   2   6 6945.33  860.36   1
  -1  -2  -6 5440.59  855.87   1
   1   2   7 2383.06  718.76   1
   1   2   7 4005.20  721.76   1
   1   2   7 3365.41  480.93   1
  -1  -2  -7 3169.41  478.46   1
   1   2   8  678.54  162.68   1
   1   2   8  891.80  173.57   1
   1   2   8  745.85  124.77   1
  -1  -2  -8  640.39  121.00   1
   1   2   9 9476.74 2758.82   1
   1   2   915826.92 2761.72   1
   1   2   913366.77 1783.84   1
  -1  -2  -911691.25 1781.02   1
   1   2  10 2355.34  642.42   1
   1   2  10 3022.97  645.11   1
   1   2  10 3162.49  429.46   1
  -1  -2 -10 2724.43  427.13   1
   1   2  11 1266.74  195.53   1
  -1  -2 -11 1185.92  193.53   1
   1   2  12 2716.85  404.91   1
  -1  -2 -12 2711.40  404.03   1
   1   2  13   94.41   54.52   1
  -1  -2 -13  135.73   71.20   1
   1   2  14 1055.74  175.05   1
  -1  -2 -14 1071.62  174.08   1
   1   2  15  728.88  129.20   1
  -1  -2 -15  666.01  126.72   1
   1   3   0  167.43   80.98   1
  -1  -3   0  195.35  104.17   1
   1   3   199728.0522172.98   1
  -1  -3  -199999.0022173.46   1
   1   3   217627.33 3827.79   1
   1   3   217085.91 2462.62   1
  -1  -3  -217580.54 3828.38   1
   1   3   3  895.07  191.82   1
   1   3   3  730.46  130.63   1
  -1  -3  -3 1340.08  202.75   1
  -1  -3  -3  779.59  129.58   1
   1   3   4 2245.69  507.94   1
   1   3   4 2076.08  339.61   1
  -1  -3  -4 2966.37  513.01   1
  -1  -3  -4 2340.44  338.75   1
   1   3   5  208.17   87.91   1
   1   3   5  284.60   62.62   1
  -1  -3  -5  249.05   90.27   1
  -1  -3  -5  251.29   58.16   1
   1   3   6 7343.36 2013.49   1
   1   3   6 9954.85 1307.76   1
  -1  -3  -6 8798.51 1303.28   1
   1   3   712729.28 3668.16   1
   1   3   719662.79 2366.05   1
  -1  -3  -715187.95 2360.42   1
   1   3   8 1502.22  417.81   1
   1   3   8 2018.08  288.10   1
  -1  -3  -8 1847.10  283.40   1
   1   3   9  322.96  127.49   1
   1   3   9  320.96   88.57   1
  -1  -3  -9  380.76   86.33   1
   1   3  10  317.78  141.15   1
   1   3  10  492.70  150.14   1
   1   3  10  403.24   83.36   1
  -1  -3 -10  338.49   83.55   1
   1   3  11 2722.68  518.21   1
   1   3  11 2426.13  341.64   1
  -1  -3 -11 2068.10  340.51   1
   1   3  12 1277.10  437.57   1
   1   3  12 1977.28  293.98   1
  -1  -3 -12 1952.71  291.70   1
   1   3  13  874.32  142.74   1
  -1  -3 -13  735.37  136.39   1
   1   3  14  735.98  127.23   1
  -1  -3 -14  597.85  123.65   1
   1   3  15  892.76  164.34   1
  -1  -3 -15  997.46  163.30   1
   1   4   0  257.28  109.93   1
   1   4   0  306.52   48.98   1
  -1  -4   0  207.53  104.77   1
  -1  -4   0  195.29   49.89   1
   1   4   1 2838.20  620.31   1
   1   4   1 2921.32  406.35   1
   1   4   1 2906.78  407.28   1
  -1  -4  -1 3169.53  621.81   1
  -1  -4  -1 2448.65  406.29   1
   1   4   212524.16 2854.80   1
  -1  -4  -212128.81 2855.04   1
  -1  -4  -213090.85 1838.40   1
   1   4   3 1037.90  238.32   1
   1   4   3 1000.40  161.94   1
  -1  -4  -3 1067.64  238.29   1
   1   4   4  -47.82   85.67   1
   1   4   4   21.30   26.62   1
  -1  -4  -4    8.49  107.15   1
  -1  -4  -4   23.29   31.54   1
   1   4   5  761.25  235.93   1
   1   4   5  915.04  160.80   1
  -1  -4  -5 1813.07  248.17   1
  -1  -4  -5 1038.31  160.23   1
   1   4   6  143.63   83.95   1
   1   4   6  107.42   45.53   1
  -1  -4  -6  218.32   86.19   1
  -1  -4  -6   83.53   40.43   1
   1   4   7   57.60   92.84   1
   1   4   7   64.44   50.94   1
  -1  -4  -7   63.67   98.20   1
  -1  -4  -7   44.51   38.62   1
   1   4   8  -25.66   98.91   1
   1   4   8   98.35   57.01   1
  -1  -4  -8   29.45   49.17   1
   1   4   9  437.89  143.19   1
   1   4   9  251.60   70.83   1
  -1  -4  -9  224.07   68.71   1
   1   4  10 1414.25  299.11   1
   1   4  10 1360.60  197.88   1
  -1  -4 -10 1095.22  191.10   1
   1   4  11  391.17  154.84   1
   1   4  11  161.73  161.59   1
   1   4  11  194.31   62.67   1
  -1  -4 -11  124.74   56.36   1
   1   4  12  477.00  230.37   1
   1   4  12  485.02  173.91   1
   1   4  12  467.10   92.47   1
  -1  -4 -12  404.87   89.40   1
   1   4  13  838.36  273.32   1
   1   4  13  893.95  157.59   1
  -1  -4 -13  932.55  153.54   1
   1   4  14  103.20   66.17   1
  -1  -4 -14   29.25   66.18   1
   1   4  15  855.50  153.56   1
  -1  -4 -15  876.63  154.61   1
   1   5   0 1829.52  379.46   1
   1   5   0 1624.66  245.83   1
   1   5   0 1900.53  246.81   1
  -1  -5   0 1062.34  371.90   1
  -1  -5   0 1459.47  248.25   1
   1   5   1 5944.35 1120.12   1
   1   5   1 5148.16  724.75   1
   1   5   1 5582.35  726.76   1
  -1  -5  -1 4860.87 1117.27   1
  -1  -5  -1 4331.77  725.25   1
   1   5   210551.89 2291.53   1
   1   5   210623.97 1475.35   1
   1   5   2 9986.09 1475.81   1
  -1  -5  -211444.57 2290.96   1
  -1  -5  -210088.79 1475.81   1
   1   5   3 9461.08 1849.80   1
   1   5   3 8431.32 1196.19   1
  -1  -5  -3 8161.99 1848.55   1
  -1  -5  -3 8125.48 1193.68   1
   1   5   4  757.38  193.06   1
   1   5   4  748.06  115.97   1
  -1  -5  -4  758.18  173.86   1
  -1  -5  -4  608.64  112.14   1
   1   5   5   42.79  123.91   1
   1   5   5   16.67   33.65   1
  -1  -5  -5   21.40   95.94   1
  -1  -5  -5   27.86   32.30   1
   1   5   6  829.57  242.76   1
   1   5   6  929.87  159.03   1
  -1  -5  -6 1598.94  249.33   1
  -1  -5  -6  997.43  158.57   1
   1   5   7 7889.02 2158.25   1
   1   5   7 9364.82 1394.44   1
  -1  -5  -713335.41 2161.32   1
  -1  -5  -7 9616.91 1393.42   1
   1   5   812597.82 3425.52   1
   1   5   814884.96 2206.01   1
  -1  -5  -817542.13 3428.17   1
  -1  -5  -815866.08 2205.25   1
   1   5   9 1486.70  442.70   1
   1   5   9 1981.19  296.35   1
  -1  -5  -9 1931.32  291.28   1
   1   5  10 1223.58  316.58   1
   1   5  10 1294.91  196.87   1
  -1  -5 -10 1124.40  191.05   1
   1   5  11   66.98  184.45   1
   1   5  11  147.71   63.36   1
  -1  -5 -11  166.56   58.75   1
   1   5  12 3716.63  687.58   1
   1   5  12 2940.52  431.55   1
  -1  -5 -12 2742.49  426.09   1
   1   5  13 7840.17 1541.40   1
   1   5  13 7030.01  993.67   1
  -1  -5 -13 6571.49  990.26   1
   1   5  14 1132.36  464.85   1
   1   5  14 1932.59  292.25   1
  -1  -5 -14 1860.37  286.49   1
   1   5  15    1.47   64.40   1
  -1  -5 -15   60.60   68.58   1
   1   6   0 7516.21 1236.81   1
   1   6   0 5613.23  796.77   1
  -1  -6   0 3569.01 1227.55   1
   1   6   1  112.65  128.80   1
   1   6   1   84.39   27.79   1
   1   6   1   99.15   31.01   1
  -1  -6  -1  113.25   97.95   1
   1   6   222125.34 3669.89   1
   1   6   217181.04 2353.89   1
   1   6   215417.78 2354.87   1
  -1  -6  -218097.49 3667.31   1
  -1  -6  -215867.93 2354.90   1
   1   6   312331.92 2431.78   1
   1   6   312250.07 1565.33   1
  -1  -6  -310750.78 2429.84   1
  -1  -6  -3 9620.19 1564.12   1
   1   6   4  121.65  120.19   1
  -1  -6  -4  -44.30  113.47   1
  -1  -6  -4   15.58   27.53   1
   1   6   5 8969.50 1956.31   1
   1   6   5 9004.41 1263.71   1
  -1  -6  -5 8733.12 1956.11   1
  -1  -6  -5 8623.19 1261.57   1
   1   6   6 2527.07  637.15   1
   1   6   6 2590.41  417.09   1
  -1  -6  -6 3883.24  638.55   1
  -1  -6  -6 2872.47  415.55   1
   1   6   7 2320.98  653.55   1
   1   6   7 2740.17  428.01   1
  -1  -6  -7 5134.18  661.42   1
  -1  -6  -7 2796.77  426.32   1
   1   6   8 8389.63 2001.75   1
   1   6   8 8409.09 1293.26   1
  -1  -6  -811579.70 2004.93   1
  -1  -6  -8 9098.24 1291.24   1
   1   6   9  336.94  173.75   1
   1   6   9  178.60   76.94   1
  -1  -6  -9  421.32  190.36   1
  -1  -6  -9  190.00   64.54   1
   1   6  10 2715.27  509.65   1
   1   6  10 1971.95  288.01   1
  -1  -6 -10 1702.82  280.88   1
   1   6  11 3378.71  506.91   1
  -1  -6 -11 3432.32  501.06   1
   1   6  12  172.87  377.09   1
   1   6  12   49.48   65.83   1
  -1  -6 -12   11.20   46.53   1
   1   6  13 1197.57  450.04   1
   1   6  13 1147.23  185.89   1
  -1  -6 -13 1095.04  180.36   1
   1   6  14  908.00  537.14   1
   1   6  14   78.90  319.91   1
   1   6  14  517.71  109.69   1
  -1  -6 -14  494.52  106.62   1
   1   6  15  228.22  322.08   1
   1   6  15  395.57   96.50   1
  -1  -6 -15  369.49   91.76   1
   1   7   029480.17 4533.08   1
   1   7   019826.97 2901.55   1
   1   7   020779.34 2901.79   1
  -1  -7   011306.92 4520.72   1
  -1  -7   021116.37 2904.69   1
   1   7   113275.99 2087.77   1
   1   7   1 9473.12 1338.58   1
  -1  -7  -1 8811.79 2079.62   1
  -1  -7  -1 8728.34 1342.12   1
   1   7   2  849.28  207.33   1
   1   7   2  436.96   64.58   1
  -1  -7  -2  566.21  155.78   1
  -1  -7  -2  152.27   65.27   1
   1   7   3 4112.47  634.05   1
   1   7   3 2928.18  394.85   1
   1   7   3 2489.29  395.74   1
  -1  -7  -3 3294.96  612.49   1
  -1  -7  -3 2407.89  394.56   1
   1   7   4 1306.52  295.08   1
   1   7   4 1137.86  158.37   1
   1   7   4  882.58  159.60   1
  -1  -7  -4 1084.75  252.89   1
  -1  -7  -4  942.88  157.83   1
   1   7   516152.92 2851.68   1
  -1  -7  -516038.42 2843.53   1
  -1  -7  -511873.40 1826.57   1
   1   7   614208.47 2835.36   1
   1   7   612639.79 1821.86   1
  -1  -7  -615503.18 2831.57   1
  -1  -7  -612203.54 1819.36   1
   1   7   7 1611.83  483.61   1
   1   7   7 1754.65  289.12   1
  -1  -7  -7 3046.73  450.85   1
  -1  -7  -7 1923.14  288.11   1
   1   7   8  284.00  200.14   1
   1   7   8  121.12   52.22   1
  -1  -7  -8  271.48  157.79   1
  -1  -7  -8  233.01   62.11   1
   1   7   9  -62.85  320.01   1
   1   7   9  142.59   58.41   1
  -1  -7  -9  199.15  181.81   1
  -1  -7  -9  131.93   50.91   1
   1   7  10 4013.65  765.35   1
   1   7  10 2745.70  456.71   1
  -1  -7 -10 4930.30  727.12   1
  -1  -7 -10 2918.16  450.67   1
   1   7  11 6096.61 1033.44   1
  -1  -7 -11 4126.94  620.30   1
   1   7  12 1266.06  428.57   1
   1   7  12 1032.68  182.23   1
  -1  -7 -12 1116.46  175.83   1
   1   7  13 -161.44  440.55   1
   1   7  13  172.58  101.43   1
  -1  -7 -13  264.17   81.77   1
   1   7  14  760.14  720.08   1
   1   7  14  126.84   77.26   1
  -1  -7 -14  165.99   68.68   1
   1   8   011644.12 1795.90   1
   1   8   0 8091.96 1145.69   1
  -1  -8   0 5230.71 1777.07   1
   1   8   1 6789.81 1054.71   1
   1   8   1 4708.86  669.42   1
   1   8   1 4450.38  670.43   1
  -1  -8  -1 3659.29 1036.04   1
  -1  -8  -1 4681.61  673.38   1
   1   8   2  -67.73  197.07   1
   1   8   2   43.28   30.38   1
   1   8   2   10.59   37.33   1
  -1  -8  -2   73.17  144.79   1
  -1  -8  -2    6.37   37.09   1
   1   8   3 1620.69  368.49   1
   1   8   3 1552.12  208.55   1
   1   8   3 1103.14  207.77   1
  -1  -8  -3 1370.64  331.33   1
  -1  -8  -3 1365.57  209.15   1
   1   8   4   86.79  201.23   1
   1   8   4  162.43   47.69   1
   1   8   4   42.07   42.74   1
  -1  -8  -4   65.93  125.58   1
  -1  -8  -4  129.11   49.84   1
   1   8   5  363.23  250.67   1
   1   8   5  280.76   62.84   1
   1   8   5  202.05   63.08   1
  -1  -8  -5  339.02  132.25   1
  -1  -8  -5  218.98   68.20   1
   1   8   6 1250.70  377.56   1
   1   8   6 1394.44  215.97   1
   1   8   6 1234.56  217.41   1
  -1  -8  -6 1882.09  340.09   1
  -1  -8  -6 1492.86  219.14   1
   1   8   7   62.45  208.93   1
   1   8   7   98.08   43.80   1
  -1  -8  -7  275.34  144.58   1
   1   8   8   65.18  204.05   1
   1   8   8    8.11   36.83   1
  -1  -8  -8   63.88  141.73   1
  -1  -8  -8   26.80   40.71   1
   1   8   9  118.73  380.12   1
   1   8   9   62.93   50.77   1
  -1  -8  -9  -28.47  201.48   1
  -1  -8  -9    5.12   53.01   1
   1   8  10  353.53  422.53   1
   1   8  10  111.51   61.59   1
  -1  -8 -10  103.42  200.04   1
  -1  -8 -10  109.03   52.14   1
   1   8  11  568.49  392.17   1
   1   8  11  246.29   91.38   1
  -1  -8 -11  831.49  295.51   1
  -1  -8 -11  242.94   72.41   1
   1   8  12  564.10  395.39   1
   1   8  12  375.88   98.40   1
  -1  -8 -12  498.39   99.02   1
   1   8  13  107.86  526.29   1
   1   8  13   70.67   77.55   1
  -1  -8 -13   43.31   79.10   1
   1   8  14  654.27  959.69   1
   1   8  14  228.77   89.13   1
  -1  -8 -14  302.05   91.86   1
   1   9   0 4703.40  624.60   1
   1   9   0 2568.98  369.54   1
   1   9   0 2303.91  371.12   1
  -1  -9   0 2287.98  578.62   1
   1   9   1 3986.54  547.70   1
   1   9   1 2365.03  314.30   1
   1   9   1 1844.88  313.64   1
  -1  -9  -1 1713.42  491.61   1
  -1  -9  -1 2045.70  318.11   1
   1   9   2 2840.88  452.02   1
   1   9   2 1297.50  222.47   1
  -1  -9  -2 1391.28  356.42   1
  -1  -9  -2 1558.11  227.47   1
   1   9   3 1195.84  330.58   1
  -1  -9  -3  980.27  260.00   1
  -1  -9  -3  963.85  157.58   1
   1   9   4  467.48  243.26   1
   1   9   4  356.75   70.91   1
   1   9   4  204.14   66.17   1
  -1  -9  -4  272.02  152.94   1
  -1  -9  -4  323.25   69.84   1
   1   9   5 2298.95  452.79   1
   1   9   5 1765.99  260.34   1
  -1  -9  -5 1912.73  405.75   1
  -1  -9  -5 1576.24  261.22   1
   1   9   6 7890.26 1491.93   1
   1   9   6 6626.49  951.87   1
  -1  -9  -6 6855.55 1473.77   1
  -1  -9  -6 6429.61  951.62   1
   1   9   7 5086.34 1111.37   1
   1   9   7 5170.98  704.84   1
   1   9   7 4080.07  705.79   1
  -1  -9  -7 6430.54 1095.26   1
  -1  -9  -7 4945.07  705.33   1
   1   9   8  361.08  320.69   1
   1   9   8  245.12   72.36   1
   1   9   8  255.00   75.74   1
  -1  -9  -8  462.17  172.61   1
  -1  -9  -8  436.43   83.55   1
   1   9   9 -192.09  396.02   1
   1   9   9   -9.08   66.39   1
  -1  -9  -9  162.49  269.37   1
  -1  -9  -9   28.09   60.10   1
   1   9  10  -58.81  493.61   1
   1   9  10   17.27   89.42   1
  -1  -9 -10   75.70  264.37   1
  -1  -9 -10  -12.02   62.28   1
   1   9  11 4308.28  841.66   1
   1   9  11 2584.45  437.49   1
  -1  -9 -11 4247.74  719.37   1
  -1  -9 -11 2843.40  430.76   1
   1   9  12 3452.27  815.72   1
   1   9  12 2356.70  455.04   1
  -1  -9 -12 3440.46  451.45   1
   1   9  13  715.60  742.40   1
   1   9  13  705.38  149.51   1
  -1  -9 -13  829.20  153.04   1
   1  10   0  502.36  270.62   1
   1  10   0  112.56   42.35   1
   1  10   0   41.43   45.35   1
  -1 -10   0  167.13  169.86   1
   1  10   1 3303.21  378.81   1
  -1 -10  -1 1774.39  206.05   1
   1  10   2 3492.47  549.86   1
   1  10   2 2097.93  311.49   1
  -1 -10  -2 1883.44  488.96   1
  -1 -10  -2 1959.73  316.34   1
   1  10   3 1051.37  297.14   1
   1  10   3  534.32   71.86   1
   1  10   3   23.98   65.73   1
  -1 -10  -3  595.22  171.47   1
   1  10   4 4183.63  564.73   1
   1  10   4 1602.35  306.21   1
  -1 -10  -4 2861.07  481.91   1
  -1 -10  -4 2190.97  308.77   1
   1  10   5 1051.70  337.82   1
   1  10   5  779.78  125.17   1
   1  10   5  602.10  132.01   1
  -1 -10  -5  784.70  215.91   1
  -1 -10  -5  700.89  125.53   1
   1  10   6 1977.81  463.63   1
   1  10   6 1817.54  245.83   1
   1  10   6 1181.70  244.88   1
  -1 -10  -6 1589.42  380.27   1
  -1 -10  -6 1618.40  245.60   1
   1  10   7 2805.89  625.86   1
   1  10   7 2766.87  363.03   1
   1  10   7 1706.52  361.09   1
  -1 -10  -7 2876.81  565.62   1
  -1 -10  -7 2605.90  364.57   1
   1  10   8   61.31  305.95   1
   1  10   8   36.66   64.69   1
   1  10   8    0.84   51.67   1
  -1 -10  -8  -70.67  165.66   1
  -1 -10  -8   46.69   49.99   1
   1  10   9 4178.51  826.58   1
   1  10   9 2963.86  464.69   1
  -1 -10  -9 5712.14  759.11   1
  -1 -10  -9 2979.60  465.46   1
   1  10  10 2680.18  714.19   1
   1  10  10 2195.24  318.57   1
   1  10  10 1839.07  326.06   1
  -1 -10 -10 2510.62  561.62   1
  -1 -10 -10 2138.90  322.90   1
   1  10  11  371.74  437.00   1
   1  10  11  -14.63   50.74   1
   1  10  11   38.19   95.21   1
  -1 -10 -11  -47.31  306.25   1
  -1 -10 -11   12.63   67.62   1
   1  10  12 1166.59  659.41   1
   1  10  12  608.28  150.17   1
  -1 -10 -12  890.24  154.56   1
   1  11   0 4459.73  431.82   1
  -1 -11   0 1990.02  220.29   1
   1  11   1  405.67  318.02   1
   1  11   1  183.67   54.99   1
  -1 -11  -1   99.81  170.69   1
   1  11   2 1005.79  369.77   1
   1  11   2  394.05   69.24   1
   1  11   2  -12.20   58.42   1
  -1 -11  -2  379.97  171.81   1
  -1 -11  -2  245.99   76.86   1
   1  11   3 1776.87  420.00   1
   1  11   3 1305.57  145.53   1
  -1 -11  -3 1329.21  253.61   1
  -1 -11  -3 1105.63  154.24   1
   1  11   411715.23 1050.05   1
   1  11   4 7151.38  626.95   1
  -1 -11  -4 7769.88  977.19   1
   1  11   5 7794.16  950.91   1
   1  11   5 6250.64  572.86   1
  -1 -11  -5 6369.07  890.41   1
  -1 -11  -5 4496.04  573.45   1
   1  11   6  104.97  310.93   1
   1  11   6  149.77   65.50   1
  -1 -11  -6   54.17  157.97   1
  -1 -11  -6  135.26   84.14   1
   1  11   7  -56.15  391.10   1
   1  11   7  185.47   79.72   1
   1  11   7   55.74   65.99   1
  -1 -11  -7  379.82  255.41   1
  -1 -11  -7   57.10   74.27   1
   1  11   8  148.77  330.99   1
   1  11   8  104.25   80.67   1
   1  11   8   74.11   65.54   1
  -1 -11  -8  186.86  263.98   1
   1  11   9 2742.64  711.45   1
   1  11   9 2408.93  350.25   1
   1  11   9 1742.17  357.26   1
  -1 -11  -9 3829.15  598.05   1
  -1 -11  -9 2496.59  355.73   1
   1  11  10 2045.81  752.87   1
   1  11  10 1799.30  276.76   1
   1  11  10 1584.79  287.29   1
  -1 -11 -10 3040.35  577.15   1
  -1 -11 -10 1649.85  274.58   1
   1  12   0 1483.10  546.55   1
  -1 -12   0 1118.52  359.26   1
   1  12   1  -36.27  439.05   1
   1  12   1   28.05   54.46   1
  -1 -12  -1  -53.02  227.20   1
   1  12   2 1886.39  431.50   1
   1  12   2  -23.74   72.77   1
  -1 -12  -2 1079.11  242.19   1
   1  12   3  190.31  367.95   1
   1  12   3  175.58   77.72   1
   1  12   3   20.71   68.59   1
  -1 -12  -3  269.40  229.73   1
   1  12   4  694.01  378.87   1
   1  12   4  -38.86   73.77   1
  -1 -12  -4  433.40  237.87   1
  -1 -12  -4  241.60   83.51   1
   1  12   5  635.33  370.88   1
   1  12   5  173.11   70.88   1
   1  12   5   -5.55   75.82   1
  -1 -12  -5  509.67  250.63   1
  -1 -12  -5  216.95   85.06   1
   1  12   6  175.60  450.78   1
   1  12   6   17.50   73.93   1
  -1 -12  -6  -85.12  264.33   1
  -1 -12  -6   38.44   81.18   1
   1  12   7   -9.01  384.39   1
   1  12   7  207.62   78.62   1
   1  12   7   58.87   65.21   1
  -1 -12  -7  361.76  283.14   1
   1  12   8  430.24  558.52   1
   1  12   8   90.19   72.27   1
   1  12   8   38.19   68.57   1
  -1 -12  -8  121.36  371.01   1
   2 -11   0   -2.23  243.88   1
  -2  11   0   61.75  331.69   1
  -2  11   0   98.89   75.22   1
  -2  11   0   55.77   75.64   1
   2 -11   1 1136.47  320.45   1
  -2  11  -1 1608.01  432.93   1
  -2  11  -1  928.05  157.71   1
  -2  11  -1  612.99  145.35   1
   2 -10   0  158.23  265.61   1
   2 -10   0  205.08   93.01   1
  -2  10   0  190.83  311.72   1
  -2  10   0   96.28   74.37   1
   2 -10   1  928.14  338.29   1
  -2  10  -1 1975.02  391.07   1
  -2  10  -1  919.14  156.71   1
  -2  10  -1  886.99  163.27   1
   2 -10   2 1458.74  363.50   1
  -2  10  -2 1794.13  417.76   1
  -2  10  -2 1033.98  178.94   1
  -2  10  -2  948.50  176.35   1
   2 -10   3 1160.86  346.16   1
  -2  10  -3 1261.03  426.53   1
  -2  10  -3  909.38  160.62   1
  -2  10  -3  837.54  164.39   1
   2 -10   4  861.27  300.65   1
  -2  10  -4 1478.58  457.08   1
  -2  10  -4  558.40  140.94   1
  -2  10  -4  779.83  145.21   1
   2 -10   5 1640.83  421.29   1
   2 -10   5 1405.68  239.10   1
  -2  10  -5 1799.62  477.26   1
  -2  10  -5 1265.46  233.91   1
  -2  10  -5 1371.19  237.45   1
   2  -9   011940.93 2974.31   1
   2  -9   013523.23 1914.07   1
  -2   9   018991.70 2991.03   1
  -2   9   013116.78 1909.06   1
  -2   9   013185.25 1910.48   1
   2  -9   1 9845.32 2181.82   1
   2  -9   1 9338.49 1403.90   1
  -2   9  -114485.22 2197.28   1
  -2   9  -110018.04 1400.18   1
  -2   9  -1 9407.45 1400.13   1
   2  -9   2 2095.86  461.73   1
  -2   9  -2 2624.30  478.78   1
  -2   9  -2 1726.05  278.51   1
  -2   9  -2 1817.99  282.71   1
   2  -9   3 2648.85  649.82   1
   2  -9   3 2497.45  411.39   1
  -2   9  -3 3824.88  696.33   1
  -2   9  -3 2839.10  410.61   1
  -2   9  -3 2793.73  412.45   1
   2  -9   4 7327.48 1579.16   1
   2  -9   4 6897.28 1016.40   1
  -2   9  -410818.14 1607.39   1
  -2   9  -4 6869.01 1013.26   1
  -2   9  -4 6871.62 1014.41   1
   2  -9   515926.88 2926.50   1
   2  -9   512595.04 1873.40   1
  -2   9  -519850.87 2943.98   1
  -2   9  -513095.45 1872.23   1
  -2   9  -512446.37 1870.32   1
   2  -9   6 7138.77 1728.05   1
   2  -9   6 6950.08 1109.74   1
  -2   9  -610090.44 1744.99   1
  -2   9  -6 8201.21 1109.86   1
  -2   9  -6 7594.18 1107.37   1
   2  -9   7 1358.96  377.83   1
   2  -9   7 1254.67  212.14   1
  -2   9  -7 1356.59  486.69   1
  -2   9  -7 1054.90  205.90   1
  -2   9  -7 1207.21  202.48   1
   2  -8   022633.93 5584.99   1
   2  -8   024508.98 3582.38   1
  -2   8   034608.71 5598.30   1
  -2   8   025384.63 3578.21   1
  -2   8   024802.94 3578.59   1
   2  -8   118150.35 3945.22   1
   2  -8   118160.49 2532.88   1
  -2   8  -121739.72 3950.77   1
  -2   8  -117065.50 2528.19   1
   2  -8   2 1711.04  422.20   1
   2  -8   2 1679.91  252.20   1
  -2   8  -2 1862.09  425.98   1
  -2   8  -2 1438.05  247.22   1
  -2   8  -2 1704.19  253.85   1
   2  -8   3  150.49  216.98   1
   2  -8   3   74.06   83.05   1
  -2   8  -3  137.61  247.33   1
  -2   8  -3  199.36   69.04   1
  -2   8  -3  163.64   68.57   1
   2  -8   4 2072.64  559.20   1
   2  -8   4 2099.12  335.38   1
  -2   8  -4 3036.27  602.38   1
  -2   8  -4 2040.23  331.00   1
  -2   8  -4 2372.46  336.01   1
   2  -8   511872.34 2717.09   1
   2  -8   511954.59 1741.95   1
  -2   8  -515653.40 2731.04   1
  -2   8  -511983.10 1741.42   1
   2  -8   614768.71 3085.47   1
   2  -8   613367.12 1976.36   1
  -2   8  -617845.48 3091.27   1
  -2   8  -613584.07 1974.52   1
   2  -8   7 3548.31  750.04   1
   2  -8   7 2940.43  442.69   1
  -2   8  -7 3345.25  798.24   1
  -2   8  -7 2854.97  438.37   1
  -2   8  -7 2839.23  437.62   1
   2  -8   8  187.77  347.06   1
   2  -8   8   86.69   79.55   1
  -2   8  -8 -128.80  476.26   1
  -2   8  -8   45.72   64.53   1
  -2   8  -8  102.90   85.35   1
   2  -8   9   34.90  292.38   1
   2  -8   9   67.91   80.68   1
  -2   8  -9  -96.37  452.22   1
  -2   8  -9  111.46  101.00   1
  -2   8  -9   15.87   92.31   1
   2  -7   0 8720.50 2044.38   1
   2  -7   0 8386.90 1313.98   1
  -2   7   012402.58 2050.47   1
  -2   7   0 9378.81 1310.38   1
  -2   7   0 9225.98 1310.68   1
   2  -7   1 9636.86 2087.43   1
   2  -7   1 8814.60 1341.01   1
   2  -7   1 9064.41 1344.06   1
  -2   7  -112465.73 2094.46   1
  -2   7  -1 9565.85 1340.11   1
  -2   7  -1 9559.11 1340.71   1
   2  -7   2  848.73  319.69   1
   2  -7   2  951.26  158.86   1
   2  -7   2  910.99  158.91   1
  -2   7  -2 1208.12  293.87   1
  -2   7  -2  918.11  150.71   1
  -2   7  -2  971.94  154.58   1
   2  -7   3 2081.91  508.90   1
   2  -7   3 1974.04  303.78   1
  -2   7  -3 2400.25  519.12   1
  -2   7  -3 1912.71  300.22   1
  -2   7  -3 2036.83  301.42   1
   2  -7   4  497.56  250.51   1
   2  -7   4  593.90  127.39   1
  -2   7  -4 1069.85  300.47   1
  -2   7  -4  739.20  120.65   1
  -2   7  -4  698.89  131.87   1
   2  -7   5 2479.61  628.55   1
   2  -7   5 2659.41  400.81   1
  -2   7  -5 2822.09  644.29   1
  -2   7  -5 2666.31  395.70   1
  -2   7  -5 2654.67  396.77   1
   2  -7   6 3403.81  721.79   1
   2  -7   6 3751.60  455.14   1
  -2   7  -6 4631.14  741.87   1
  -2   7  -6 3475.89  454.69   1
  -2   7  -6 1705.04  450.21   1
   2  -7   7 1757.42  469.84   1
   2  -7   7 1688.93  274.36   1
  -2   7  -7 1986.26  550.77   1
  -2   7  -7 1821.35  274.30   1
  -2   7  -7 1617.12  269.04   1
   2  -7   8  265.51  288.28   1
   2  -7   8  174.76   76.36   1
  -2   7  -8  205.53  342.97   1
  -2   7  -8  159.57   75.44   1
  -2   7  -8  114.26   86.36   1
   2  -7   9  180.13  281.55   1
   2  -7   9  109.20   72.84   1
  -2   7  -9   93.48  482.98   1
  -2   7  -9   67.99   77.46   1
  -2   7  -9  114.49   74.11   1
   2  -7  10  496.62  356.62   1
   2  -7  10  190.08   95.46   1
  -2   7 -10  360.29  446.41   1
  -2   7 -10  176.46   97.76   1
  -2   7 -10  263.45  100.48   1
   2  -6   0 8022.51 1762.20   1
   2  -6   0 7753.86 1132.67   1
   2  -6   0 6862.79 1134.44   1
  -2   6   0 9261.91 1766.65   1
  -2   6   0 7834.04 1131.78   1
  -2   6   0 8685.82 1132.66   1
   2  -6   110561.28 2030.92   1
   2  -6   1 8580.72 1302.80   1
   2  -6   1 8227.32 1305.23   1
  -2   6  -111216.37 2030.68   1
  -2   6  -1 9058.02 1301.88   1
  -2   6  -1 9890.62 1302.94   1
   2  -6   2 5652.15 1113.73   1
   2  -6   2 4638.04  711.39   1
   2  -6   2 4930.48  714.38   1
  -2   6  -2 5421.44 1106.79   1
  -2   6  -2 4921.57  709.86   1
  -2   6  -2 5002.41  710.49   1
   2  -6   3 5483.54 1048.50   1
   2  -6   3 4795.09  668.88   1
  -2   6  -3 4700.79  667.06   1
  -2   6  -3 4235.44  667.90   1
   2  -6   4 2270.62  569.50   1
   2  -6   4 2352.98  356.04   1
  -2   6  -4 3266.16  603.61   1
  -2   6  -4 2378.81  354.77   1
  -2   6  -4 2323.65  354.31   1
   2  -6   5 2958.65  681.28   1
   2  -6   5 2794.71  431.64   1
  -2   6  -5 4365.43  692.76   1
  -2   6  -5 2946.93  431.43   1
  -2   6  -5 2809.65  432.25   1
   2  -6   6 3348.11  779.01   1
   2  -6   6 3494.04  497.91   1
  -2   6  -6 3829.66  797.11   1
  -2   6  -6 3197.14  496.92   1
  -2   6  -6 3355.18  499.03   1
   2  -6   7 3267.21  732.89   1
   2  -6   7 3021.23  463.85   1
  -2   6  -7 3289.61  780.72   1
  -2   6  -7 3315.84  466.19   1
  -2   6  -7 2965.96  464.85   1
   2  -6   8 4500.10  942.53   1
   2  -6   8 4359.02  600.07   1
  -2   6  -8 4597.42  966.67   1
  -2   6  -8 3860.21  599.76   1
  -2   6  -8 3851.49  603.05   1
   2  -6   9 7676.10 1574.35   1
   2  -6   9 6807.77 1006.53   1
  -2   6  -9 7598.49 1009.30   1
  -2   6  -9 6320.49 1008.48   1
   2  -6  10 1803.89  522.57   1
   2  -6  10 1845.77  279.38   1
  -2   6 -10 1704.90  556.73   1
  -2   6 -10 1703.35  278.24   1
  -2   6 -10 1667.42  281.98   1
   2  -6  11  302.02  260.99   1
   2  -6  11  777.17  145.58   1
  -2   6 -11  329.23  469.37   1
  -2   6 -11  706.61  138.52   1
  -2   6 -11  733.34  153.11   1
   2  -5   021159.68 4377.14   1
   2  -5   018757.25 2806.37   1
   2  -5   018653.32 2809.92   1
  -2   5   024862.18 4379.31   1
  -2   5   019477.33 2806.20   1
  -2   5   021020.18 2806.70   1
   2  -5   113515.86 2466.49   1
   2  -5   110740.40 1583.54   1
   2  -5   111035.29 1585.54   1
  -2   5  -114132.83 2466.21   1
  -2   5  -110939.90 1582.15   1
  -2   5  -111005.82 1582.40   1
   2  -5   217818.01 3476.43   1
   2  -5   215462.45 2230.31   1
   2  -5   214793.17 2231.61   1
  -2   5  -217963.35 3473.87   1
  -2   5  -215931.76 2228.68   1
  -2   5  -215638.69 2229.63   1
   2  -5   322988.46 4539.97   1
   2  -5   318888.97 2910.44   1
  -2   5  -325691.12 4542.56   1
  -2   5  -321342.98 2909.64   1
  -2   5  -320038.59 2910.10   1
   2  -5   446901.13 9103.07   1
   2  -5   439224.58 5826.54   1
  -2   5  -451287.84 9103.91   1
  -2   5  -440749.30 5825.24   1
   2  -5   526039.78 5800.87   1
   2  -5   525913.56 3718.52   1
  -2   5  -529995.02 5801.32   1
  -2   5  -526593.84 3717.43   1
  -2   5  -525101.88 3719.18   1
   2  -5   6 4490.10 1080.15   1
   2  -5   6 4871.40  695.31   1
  -2   5  -6 5373.77 1080.96   1
  -2   5  -6 4732.45  693.55   1
  -2   5  -6 4623.88  697.11   1
   2  -5   7 2418.47  517.00   1
   2  -5   7 1834.83  287.25   1
  -2   5  -7 2357.40  525.84   1
  -2   5  -7 1886.69  288.84   1
  -2   5  -7 1789.98  289.06   1
   2  -5   8 8642.34 1784.51   1
   2  -5   8 8137.01 1147.79   1
  -2   5  -810478.74 1807.54   1
  -2   5  -8 7388.47 1147.15   1
  -2   5  -8 7852.58 1150.94   1
   2  -5   920440.72 4556.31   1
  -2   5  -926739.67 4569.13   1
  -2   5  -919848.70 2924.83   1
  -2   5  -920113.44 2926.62   1
   2  -5  1016793.19 3973.25   1
   2  -5  1017515.18 2547.86   1
  -2   5 -1021230.74 3980.83   1
  -2   5 -1017402.63 2549.68   1
  -2   5 -1018267.93 2551.93   1
   2  -5  11 2984.44  974.89   1
   2  -5  11 4404.93  608.72   1
  -2   5 -11 2962.06  979.69   1
  -2   5 -11 3832.93  610.08   1
  -2   5 -11 4598.55  614.20   1
   2  -5  12  -32.38  267.23   1
   2  -5  12  175.97   75.72   1
  -2   5 -12  142.40   68.71   1
  -2   5 -12  199.13  107.95   1
   2  -4   022655.00 5182.50   1
   2  -4   022883.08 3324.10   1
   2  -4   023152.92 3326.14   1
  -2   4   022010.21 5182.55   1
  -2   4   024191.34 3323.31   1
  -2   4   023184.03 3323.64   1
   2  -4   1 1006.20  277.23   1
   2  -4   1  927.45  158.33   1
   2  -4   1  851.98  159.88   1
  -2   4  -1 1084.39  273.98   1
  -2   4  -1 1047.94  156.78   1
  -2   4  -1 1166.82  158.18   1
   2  -4   2  216.38  164.11   1
   2  -4   2  205.45   55.30   1
   2  -4   2  182.20   54.15   1
  -2   4  -2  289.36  191.93   1
  -2   4  -2  244.16   49.47   1
  -2   4  -2  244.77   54.49   1
   2  -4   3 7629.62 1732.15   1
  -2   4  -3 9002.03 1734.85   1
  -2   4  -3 7329.86 1115.83   1
  -2   4  -3 8199.03 1117.99   1
   2  -4   440926.65 8657.74   1
   2  -4   440159.70 5545.33   1
  -2   4  -445625.00 8659.08   1
  -2   4  -441159.25 5544.43   1
  -2   4  -433536.11 5546.38   1
   2  -4   523453.67 5133.77   1
   2  -4   521990.21 3293.66   1
  -2   4  -524599.96 5134.95   1
  -2   4  -522493.40 3292.97   1
  -2   4  -524957.93 3296.36   1
   2  -4   6 4076.26  941.92   1
   2  -4   6 4321.66  606.85   1
  -2   4  -6 4017.35  934.83   1
  -2   4  -6 4171.49  606.17   1
  -2   4  -6 3969.23  608.57   1
   2  -4   7 1150.39  312.56   1
   2  -4   7 1102.88  183.57   1
  -2   4  -7 1281.18  323.34   1
  -2   4  -7 1229.95  185.08   1
  -2   4  -7 1116.75  186.24   1
   2  -4   8 1019.41  289.95   1
   2  -4   8  739.43  138.92   1
  -2   4  -8 1123.79  319.57   1
  -2   4  -8  885.02  140.08   1
  -2   4  -8  729.22  141.38   1
   2  -4   910056.86 1761.86   1
   2  -4   9 7436.60 1124.83   1
  -2   4  -911768.61 1761.67   1
  -2   4  -9 7617.73 1126.83   1
  -2   4  -9 7467.99 1127.72   1
   2  -4  1012915.89 2853.21   1
   2  -4  1013688.92 1832.08   1
  -2   4 -1016768.85 2863.77   1
  -2   4 -1011938.25 1832.38   1
  -2   4 -1011793.01 1834.14   1
   2  -4  11 2627.36  401.05   1
  -2   4 -11 2477.22  398.44   1
  -2   4 -11 2944.09  407.58   1
   2  -4  12  137.51  196.89   1
   2  -4  12  100.39   67.48   1
  -2   4 -12   58.41   61.01   1
  -2   4 -12   51.52   77.54   1
   2  -4  13   -0.41  199.74   1
   2  -4  13  113.56   72.74   1
  -2   4 -13  129.83   81.12   1
  -2   4 -13   96.66   84.49   1
   2  -3   017531.92 4124.51   1
   2  -3   019146.42 2649.79   1
   2  -3   017158.49 2649.84   1
  -2   3   014533.49 4124.54   1
  -2   3   018867.29 2648.73   1
  -2   3   019575.69 2649.33   1
   2  -3   1  251.22  172.20   1
   2  -3   1  217.83   51.45   1
   2  -3   1  190.63   52.17   1
  -2   3  -1  327.96  162.66   1
  -2   3  -1  214.82   47.86   1
  -2   3  -1  242.74   52.75   1
   2  -3   2 9129.73 2085.10   1
   2  -3   2 9517.92 1344.64   1
   2  -3   2 9397.96 1345.58   1
  -2   3  -210578.78 2085.80   1
  -2   3  -2 8962.05 1343.77   1
  -2   3  -2 9546.07 1344.99   1
   2  -3   3  635.93  243.84   1
   2  -3   3  888.71  133.93   1
  -2   3  -3 1021.48  230.90   1
  -2   3  -3  887.90  133.14   1
  -2   3  -3  677.95  135.72   1
   2  -3   4 8324.17 2002.70   1
   2  -3   4 9025.96 1292.99   1
  -2   3  -4 9047.27 2003.62   1
  -2   3  -4 9090.45 1291.88   1
  -2   3  -4 8930.16 1294.99   1
   2  -3   517925.17 4147.71   1
  -2   3  -518263.95 4148.86   1
  -2   3  -518321.01 2664.94   1
  -2   3  -519322.11 2668.19   1
   2  -3   6 2232.81  528.59   1
   2  -3   6 2236.27  338.85   1
  -2   3  -6 2590.50  532.14   1
  -2   3  -6 2210.34  338.67   1
  -2   3  -6 2327.21  341.89   1
   2  -3   7  508.86  235.38   1
   2  -3   7  966.01  147.31   1
  -2   3  -7  756.93  253.90   1
  -2   3  -7  871.54  148.82   1
  -2   3  -7  917.29  149.30   1
   2  -3   8  631.91  255.92   1
   2  -3   8  521.68   98.84   1
  -2   3  -8  705.20  230.43   1
  -2   3  -8  526.17  104.07   1
  -2   3  -8  515.84  101.46   1
   2  -3   9  494.58  218.41   1
   2  -3   9  286.46   69.32   1
  -2   3  -9  433.63  213.88   1
  -2   3  -9  262.36   72.46   1
  -2   3  -9  317.84   71.39   1
   2  -3  10 3891.00  819.79   1
   2  -3  10 3544.63  525.08   1
  -2   3 -10 3839.16  811.93   1
  -2   3 -10 3545.50  526.97   1
   2  -3  11 1610.93  487.05   1
   2  -3  11 2106.55  308.22   1
  -2   3 -11 1993.54  307.42   1
   2  -3  12  264.69  230.31   1
   2  -3  12  438.94  100.05   1
  -2   3 -12  530.07   98.65   1
   2  -3  13  -23.07  157.62   1
   2  -3  13  187.56   83.72   1
  -2   3 -13  223.64   76.30   1
   2  -3  14  304.35   81.58   1
  -2   3 -14  195.07  101.83   1
   2  -2   030945.78 8665.14   1
   2  -2   038473.94 5552.79   1
   2  -2   037858.47 5553.44   1
  -2   2   029493.24 8667.15   1
  -2   2   043128.24 5552.86   1
  -2   2   038451.22 5551.56   1
   2  -2   115933.74 4220.44   1
   2  -2   118446.62 2712.12   1
   2  -2   119201.47 2714.39   1
  -2   2  -114405.82 4222.25   1
  -2   2  -120064.70 2712.26   1
  -2   2  -119265.04 2712.10   1
   2  -2   2 1231.92  366.19   1
   2  -2   2 1380.25  229.06   1
   2  -2   2 1564.63  231.48   1
  -2   2  -2 1522.26  365.77   1
  -2   2  -2 1631.65  228.52   1
  -2   2  -2 1507.76  230.36   1
   2  -2   3 3917.65 1045.20   1
   2  -2   3 4608.76  680.02   1
  -2   2  -3 4068.86 1047.23   1
  -2   2  -3 4871.28  679.02   1
  -2   2  -3 4762.22  682.14   1
   2  -2   412449.39 3456.33   1
   2  -2   415636.10 2223.85   1
  -2   2  -415322.34 3458.26   1
  -2   2  -415639.15 2223.47   1
  -2   2  -415859.47 2226.13   1
   2  -2   511844.72 3110.61   1
   2  -2   514828.77 2003.46   1
  -2   2  -514567.31 3112.14   1
  -2   2  -513522.33 2002.21   1
  -2   2  -513880.47 2005.47   1
   2  -2   6 8494.06 1993.15   1
   2  -2   6 8452.20 1287.38   1
  -2   2  -610735.02 1995.93   1
  -2   2  -6 8852.13 1287.76   1
  -2   2  -6 9448.88 1289.54   1
   2  -2   7 9959.96 2072.98   1
   2  -2   7 9008.04 1336.93   1
  -2   2  -711934.73 2072.29   1
  -2   2  -7 9182.91 1338.72   1
   2  -2   8 8702.23 1668.70   1
   2  -2   8 6948.56 1075.32   1
  -2   2  -8 9781.16 1663.80   1
  -2   2  -8 7617.68 1078.23   1
   2  -2   910255.36 1964.16   1
   2  -2   9 8869.09 1262.34   1
  -2   2  -910070.74 1954.83   1
  -2   2  -9 8299.10 1264.60   1
   2  -2  10 3363.77  730.51   1
   2  -2  10 3159.31  459.13   1
  -2   2 -10 4220.84  715.80   1
  -2   2 -10 2864.30  459.88   1
   2  -2  11  954.25  338.23   1
   2  -2  11 1411.99  201.41   1
  -2   2 -11 1146.02  197.57   1
   2  -2  12 4974.68  706.67   1
  -2   2 -12 4746.10  706.00   1
   2  -2  13 7355.73 1085.74   1
  -2   2 -13 7720.72 1086.93   1
   2  -2  14 5464.15  779.53   1
  -2   2 -14 5252.91  782.19   1
   2  -1   036534.13 9477.02   1
   2  -1   042681.75 6069.63   1
   2  -1   043844.58 6070.78   1
  -2   1   039760.02 9478.83   1
   2  -1   130206.34 7293.57   1
   2  -1   133615.91 4675.27   1
   2  -1   133043.85 4676.48   1
  -2   1  -126009.61 7294.10   1
  -2   1  -132761.57 4674.55   1
  -2   1  -133489.88 4675.76   1
   2  -1   250033.6211788.83   1
   2  -1   252218.64 7547.17   1
   2  -1   255469.61 7549.18   1
  -2   1  -242167.8711789.00   1
  -2   1  -252949.31 7546.82   1
  -2   1  -254635.43 7549.36   1
   2  -1   366074.6615299.08   1
   2  -1   369971.64 9789.94   1
  -2   1  -352489.3415299.38   1
  -2   1  -371426.91 9792.27   1
   2  -1   429870.90 6649.78   1
   2  -1   430794.53 4264.52   1
  -2   1  -430151.53 6650.22   1
  -2   1  -428411.89 4263.60   1
  -2   1  -430995.68 4266.61   1
   2  -1   512811.79 2753.58   1
   2  -1   511684.55 1774.71   1
  -2   1  -513563.92 2753.70   1
  -2   1  -512928.37 1775.35   1
   2  -1   610204.55 2394.91   1
   2  -1   611034.48 1545.65   1
  -2   1  -610897.62 2394.74   1
  -2   1  -610584.44 1546.01   1
   2  -1   723572.28 4803.90   1
   2  -1   721231.94 3084.70   1
  -2   1  -728349.14 4804.64   1
  -2   1  -720754.74 3085.92   1
   2  -1   841325.05 8304.85   1
   2  -1   835916.17 5322.40   1
  -2   1  -847553.51 8305.87   1
  -2   1  -836553.05 5324.37   1
   2  -1   923497.84 5374.40   1
   2  -1   924072.14 3450.97   1
  -2   1  -928511.47 5376.96   1
  -2   1  -923521.76 3452.13   1
   2  -1  10 4835.02 1169.55   1
   2  -1  10 5417.30  751.62   1
  -2   1 -10 4966.11  750.87   1
   2  -1  11 1029.19  153.69   1
  -2   1 -11  842.67  151.62   1
   2  -1  12 2299.58  841.45   1
   2  -1  12 3798.44  547.89   1
  -2   1 -12 3795.66  547.34   1
   2  -1  1313725.61 1979.60   1
  -2   1 -1313946.15 1980.05   1
   2  -1  1413186.44 1844.76   1
  -2   1 -1412582.97 1844.49   1
   2  -1  15 2734.43  388.12   1
  -2   1 -15 2459.75  389.20   1
   2   0   0  365.26  154.42   1
   2   0   0  400.13   73.47   1
   2   0   0  411.51   74.71   1
  -2   0   0  598.78  139.80   1
  -2   0   0  402.73   72.42   1
  -2   0   0  385.05   73.72   1
   2   0   1 1530.26  324.93   1
   2   0   1 1289.82  204.57   1
   2   0   1 1451.80  207.08   1
  -2   0  -1 1292.10  315.49   1
  -2   0  -1 1345.76  204.61   1
  -2   0  -1 1315.66  205.83   1
   2   0   219275.42 4301.79   1
   2   0   219309.64 2762.73   1
  -2   0  -217584.85 4301.18   1
  -2   0  -219067.35 2762.76   1
  -2   0  -220331.51 2765.26   1
   2   0   363259.5214886.50   1
  -2   0  -359111.1214886.34   1
  -2   0  -369546.86 9528.23   1
   2   0   443109.14 9886.69   1
   2   0   445149.80 6332.44   1
  -2   0  -441383.40 9886.29   1
  -2   0  -444702.27 6333.27   1
   2   0   5 1133.75  309.53   1
   2   0   5 1428.31  198.04   1
  -2   0  -5 1088.33  296.44   1
  -2   0  -5 1181.59  198.22   1
   2   0   6 3331.50  513.47   1
  -2   0  -6 4049.09  780.85   1
  -2   0  -6 3588.52  514.73   1
   2   0   7 1672.50  371.56   1
   2   0   7 1485.35  243.63   1
  -2   0  -7 2041.07  372.41   1
  -2   0  -7 1607.41  247.49   1
   2   0   815420.75 3680.08   1
   2   0   817339.58 2368.74   1
  -2   0  -815887.29 2370.61   1
   2   0   924594.80 3394.04   1
  -2   0  -923081.24 3392.73   1
   2   0  10 2540.44  707.46   1
   2   0  10 3355.02  465.43   1
  -2   0 -10 3027.63  463.19   1
   2   0  11  686.58  266.82   1
   2   0  11  609.64  278.67   1
   2   0  11 1008.20  153.76   1
  -2   0 -11  929.24  155.19   1
   2   0  12  339.59   72.72   1
  -2   0 -12  292.71   77.99   1
   2   0  13 2408.94  378.73   1
  -2   0 -13 2662.79  380.03   1
   2   0  14 6992.33 1011.45   1
  -2   0 -14 6999.70 1011.34   1
   2   0  15 2078.33  322.28   1
  -2   0 -15 2165.69  323.58   1
   2   1   0 1769.66  390.74   1
   2   1   0 1814.88  256.51   1
   2   1   0 1689.31  257.89   1
  -2  -1   0 1786.55  392.43   1
  -2  -1   0 1772.59  257.31   1
  -2  -1   0 1602.85  256.57   1
   2   1   128435.32 4110.03   1
   2   1   128178.87 4112.77   1
  -2  -1  -129918.94 6411.89   1
  -2  -1  -128603.60 4110.86   1
  -2  -1  -130255.60 4112.25   1
   2   1   2  529.69  167.21   1
   2   1   2  565.28   96.32   1
  -2  -1  -2  573.32  173.43   1
  -2  -1  -2  571.07   97.42   1
  -2  -1  -2  626.20   99.30   1
   2   1   338919.18 8393.63   1
   2   1   338070.66 5378.11   1
  -2  -1  -334471.40 8393.63   1
  -2  -1  -338063.95 5379.47   1
   2   1   415595.01 3617.95   1
   2   1   416924.53 2328.57   1
  -2  -1  -415809.75 2329.16   1
   2   1   5 1529.32  313.79   1
   2   1   5 1405.18  210.08   1
  -2  -1  -5 1270.35  212.57   1
   2   1   6 3351.31  681.14   1
   2   1   6 2903.31  448.06   1
  -2  -1  -6 3132.09  451.13   1
   2   1   7 1970.06  438.99   1
   2   1   7 2052.19  294.16   1
  -2  -1  -7 1810.07  295.42   1
   2   1   8 6125.60  892.24   1
  -2  -1  -8 6215.05  892.21   1
   2   1   910138.83 2348.94   1
   2   1   911325.09 1518.05   1
  -2  -1  -910002.29 1515.96   1
   2   1  10 1156.03  334.06   1
   2   1  10 1305.89  337.27   1
   2   1  10 1460.32  215.84   1
  -2  -1 -10 1356.80  216.06   1
   2   1  11  200.37  165.16   1
   2   1  11  224.54   61.43   1
  -2  -1 -11  182.26   66.73   1
   2   1  12  109.22  116.69   1
   2   1  12  194.99   58.59   1
  -2  -1 -12  152.67   63.90   1
   2   1  13  871.49  151.86   1
  -2  -1 -13  954.85  152.75   1
   2   1  14 1321.40  205.70   1
  -2  -1 -14 1282.17  204.88   1
   2   1  15 1002.73  168.28   1
  -2  -1 -15 1015.53  170.09   1
   2   2   0 6974.18 1046.76   1
  -2  -2   0 7588.85 1044.97   1
  -2  -2   0 7224.00 1044.40   1
   2   2   1 1417.64  211.10   1
  -2  -2  -1 1460.00  212.29   1
  -2  -2  -1 1323.09  213.70   1
   2   2   2 4263.07  616.83   1
   2   2   328973.42 3848.71   1
  -2  -2  -324913.87 3849.36   1
   2   2   454205.08 7574.60   1
  -2  -2  -452035.72 7578.01   1
   2   2   521705.78 3940.13   1
   2   2   517745.54 2534.93   1
  -2  -2  -516415.14 2537.61   1
   2   2   6 9778.08 1734.39   1
   2   2   6 7148.87 1125.09   1
  -2  -2  -6 8016.70 1126.28   1
   2   2   7 5681.54 1561.07   1
   2   2   7 8075.90 1563.87   1
   2   2   7 7320.40 1016.39   1
  -2  -2  -7 6865.07 1014.41   1
   2   2   8 6473.80 1897.01   1
   2   2   810253.81 1899.37   1
   2   2   8 9589.62 1231.40   1
  -2  -2  -8 7832.41 1228.88   1
   2   2   9 6976.21 2124.40   1
   2   2   9 9182.20 2126.70   1
   2   2   9 9976.31 1377.55   1
  -2  -2  -9 9749.15 1375.92   1
   2   2  10 8060.34 2390.54   1
   2   2  1010947.27 2393.70   1
   2   2  1011178.36 1546.65   1
  -2  -2 -1010893.63 1546.11   1
   2   2  11 8922.40 1242.07   1
  -2  -2 -11 8357.74 1241.27   1
   2   2  12 6035.50 1924.15   1
   2   2  12 8940.48 1246.97   1
  -2  -2 -12 8755.63 1244.84   1
   2   2  13 4081.72 1651.57   1
   2   2  13 8028.26 1075.14   1
  -2  -2 -13 7415.37 1073.03   1
   2   2  14 2365.63  333.15   1
  -2  -2 -14 2056.53  332.02   1
   2   2  15 1177.71  201.49   1
  -2  -2 -15 1309.40  205.77   1
   2   2  16 1431.28  236.14   1
  -2  -2 -16 1545.86  238.72   1
   2   3   040991.15 9097.74   1
   2   3   162544.2913883.76   1
   2   3   251835.3311506.30   1
   2   3   339909.43 8659.95   1
   2   3   338782.28 5550.86   1
   2   3   417537.40 3415.49   1
   2   3   416238.76 2200.26   1
  -2  -3  -414081.20 2199.38   1
   2   3   524240.92 3365.18   1
   2   3   513830.40 2166.50   1
  -2  -3  -514552.28 2164.88   1
   2   3   624989.24 4109.32   1
   2   3   618130.76 2643.10   1
  -2  -3  -617755.19 2641.36   1
   2   3   733873.82 8134.10   1
   2   3   738448.83 5216.13   1
  -2  -3  -735553.08 5214.67   1
   2   3   818755.32 6014.23   1
   2   3   833538.72 6017.79   1
   2   3   827850.42 3862.10   1
  -2  -3  -826846.91 3861.40   1
   2   3   9 4041.07 1382.70   1
   2   3   9 6575.52  902.48   1
  -2  -3  -9 6439.25  901.76   1
   2   3  10 1429.23  348.64   1
   2   3  10 1615.63  357.80   1
   2   3  10 1518.10  229.61   1
  -2  -3 -10 1403.05  230.31   1
   2   3  11 5036.09 1551.59   1
   2   3  11 7272.68 1558.49   1
   2   3  11 7644.45 1010.51   1
  -2  -3 -11 6700.36 1008.17   1
   2   3  1212574.18 4207.99   1
   2   3  1219419.02 4213.46   1
   2   3  1220538.05 2708.05   1
  -2  -3 -1218610.42 2705.93   1
   2   3  1311397.14 3530.95   1
   2   3  1317288.66 2275.51   1
  -2  -3 -1315282.88 2272.67   1
   2   3  14 3703.52  534.14   1
  -2  -3 -14 3553.41  533.41   1
   2   3  15  132.41   66.97   1
  -2  -3 -15  205.34   80.02   1
   2   3  16  367.73   93.96   1
  -2  -3 -16  462.61  103.55   1
   2   4   0 1705.10  411.19   1
  -2  -4   0 1925.62  409.35   1
   2   4   116840.78 3669.10   1
  -2  -4  -116246.27 3668.99   1
   2   4   236728.96 7747.98   1
   2   4   234211.79 4966.30   1
  -2  -4  -235459.98 7747.72   1
   2   4   317203.72 3744.29   1
   2   4   313664.06 2409.56   1
  -2  -4  -319959.32 3744.87   1
  -2  -4  -318469.75 2406.96   1
   2   4   4  660.80  184.36   1
   2   4   4  474.97  125.40   1
  -2  -4  -4  899.01  199.06   1
  -2  -4  -4  919.72  123.16   1
   2   4   5  169.54   93.07   1
   2   4   5  122.72   51.82   1
  -2  -4  -5  195.87   52.37   1
   2   4   6 2396.71  532.46   1
   2   4   6 2291.55  357.40   1
  -2  -4  -6 2425.46  353.60   1
   2   4   719712.78 4809.83   1
   2   4   722178.50 3092.96   1
  -2  -4  -721657.16 3089.50   1
   2   4   810018.71 2565.78   1
   2   4   813240.81 1659.73   1
  -2  -4  -810591.95 1655.17   1
   2   4   9  341.44  133.22   1
   2   4   9  505.86   95.60   1
  -2  -4  -9  500.71   94.17   1
   2   4  10 1166.07  349.64   1
   2   4  10 1869.45  380.64   1
   2   4  10 1667.19  238.47   1
  -2  -4 -10 1396.98  235.95   1
   2   4  11   39.13  129.59   1
   2   4  11  119.82   54.18   1
  -2  -4 -11   87.86   52.55   1
   2   4  12 5147.28 1107.25   1
   2   4  12 4927.47  717.05   1
  -2  -4 -12 4862.99  714.30   1
   2   4  13 7457.57 1791.71   1
   2   4  13 8407.28 1153.73   1
  -2  -4 -13 7734.63 1150.78   1
   2   4  14  712.05  318.23   1
   2   4  14  602.54  314.52   1
   2   4  14 1053.24  172.93   1
  -2  -4 -14 1109.54  171.92   1
   2   4  15  358.63   91.71   1
  -2  -4 -15  416.23   96.35   1
   2   4  16  184.24   65.76   1
  -2  -4 -16   64.54   66.45   1
   2   5   0 2735.88  613.86   1
  -2  -5   0 2775.73  618.74   1
   2   5   1 1300.63  355.41   1
  -2  -5  -1 1922.51  367.11   1
   2   5   221043.66 4498.92   1
   2   5   215925.87 2891.86   1
  -2  -5  -225036.32 4500.91   1
  -2  -5  -221957.02 2887.19   1
   2   5   316616.16 3324.15   1
   2   5   3 8096.59 2142.25   1
  -2  -5  -319535.98 3326.15   1
  -2  -5  -317477.88 2136.76   1
   2   5   4  856.62  187.06   1
   2   5   4  446.74  127.16   1
  -2  -5  -4  879.17  191.77   1
  -2  -5  -4  843.23  120.60   1
   2   5   511728.26 2548.38   1
   2   5   5 8530.96 1647.98   1
  -2  -5  -515267.71 2550.92   1
  -2  -5  -512149.51 1640.69   1
   2   5   6  293.69   95.42   1
   2   5   6  123.82   55.86   1
  -2  -5  -6  253.92  108.66   1
  -2  -5  -6  183.95   48.44   1
   2   5   7 6494.97 1718.19   1
   2   5   7 7266.78 1118.35   1
  -2  -5  -7 8226.08 1112.81   1
   2   5   8 9226.38 2649.46   1
   2   5   812040.43 1713.46   1
  -2  -5  -812307.23 1708.37   1
   2   5   9 2077.59  675.37   1
   2   5   9 3114.32  450.69   1
  -2  -5  -9 3114.29  446.68   1
   2   5  10  614.91  210.87   1
   2   5  10  664.17  122.74   1
  -2  -5 -10  709.51  122.56   1
   2   5  11  463.73  182.33   1
   2   5  11  546.89  103.71   1
  -2  -5 -11  544.97  110.36   1
   2   5  12 1617.14  412.97   1
   2   5  12 1752.07  259.14   1
  -2  -5 -12 1605.99  256.57   1
   2   5  13 2702.07  735.98   1
   2   5  13 3163.95  736.67   1
   2   5  13 3433.21  469.54   1
  -2  -5 -13 2984.90  466.44   1
   2   5  14  926.66  462.04   1
   2   5  14 1118.07  459.66   1
   2   5  14 1929.54  273.87   1
  -2  -5 -14 1738.60  271.35   1
   2   5  15  130.67   72.68   1
  -2  -5 -15  172.04   85.23   1
   2   6   0  170.49  111.13   1
  -2  -6   0  154.49  114.20   1
   2   6   1 3535.83  724.71   1
  -2  -6  -1 2896.21  726.78   1
   2   6   244821.61 7167.26   1
   2   6   223756.26 4594.35   1
  -2  -6  -251190.43 7169.55   1
   2   6   329879.19 5233.47   1
   2   6   3 9110.65 3357.84   1
  -2  -6  -337132.98 5236.99   1
  -2  -6  -330278.65 3355.86   1
   2   6   413747.89 2710.21   1
   2   6   4 6966.00 1747.20   1
  -2  -6  -419988.82 2715.75   1
  -2  -6  -413879.41 1742.98   1
   2   6   5 3960.30  908.12   1
   2   6   5 3140.64  597.02   1
  -2  -6  -5 5763.55  912.01   1
  -2  -6  -5 4277.26  590.98   1
   2   6   6 4259.51 1094.51   1
   2   6   6 4152.47  717.80   1
  -2  -6  -6 5874.20 1097.10   1
  -2  -6  -6 5253.99  712.04   1
   2   6   7 9774.28 2697.83   1
   2   6   7 9917.04 1742.93   1
  -2  -6  -716804.20 2703.90   1
  -2  -6  -713015.98 1738.27   1
   2   6   813913.67 3711.20   1
   2   6   815907.13 2391.46   1
  -2  -6  -817584.13 2385.96   1
   2   6   9 6899.02 1647.22   1
   2   6   9 7205.82 1069.15   1
  -2  -6  -9 7583.12 1064.45   1
   2   6  10 6629.60 1355.44   1
   2   6  10 5814.61  873.86   1
  -2  -6 -10 6073.34  869.97   1
   2   6  11 8538.79 1466.36   1
   2   6  11 6529.10  939.27   1
  -2  -6 -11 6180.76  935.18   1
   2   6  12 8239.22 1493.13   1
   2   6  12 6776.96  956.27   1
  -2  -6 -12 6246.38  952.80   1
   2   6  13 4074.44  868.12   1
   2   6  13 3556.14  522.11   1
  -2  -6 -13 3439.14  519.38   1
   2   6  14 2121.99  564.52   1
   2   6  14 1677.86  556.49   1
   2   6  14 1905.72  293.66   1
  -2  -6 -14 1825.45  289.52   1
   2   6  15 1250.34  767.82   1
   2   6  15 1201.25  646.57   1
   2   6  15 2404.15  347.61   1
  -2  -6 -15 2339.13  347.04   1
   2   7   014301.62 2090.88   1
  -2  -7   0 5554.93 2080.00   1
   2   7   117810.65 3139.55   1
  -2  -7  -111508.37 3133.26   1
   2   7   219620.20 2621.23   1
   2   7   214881.14 1677.43   1
   2   7   2 5251.03 1679.18   1
  -2  -7  -215512.66 2612.48   1
   2   7   332302.97 4360.73   1
   2   7   324472.45 2792.17   1
  -2  -7  -328911.46 4357.63   1
  -2  -7  -322128.56 2792.21   1
   2   7   418116.05 3057.70   1
  -2  -7  -419208.12 3056.60   1
  -2  -7  -412408.33 1961.12   1
   2   7   517440.57 2964.62   1
   2   7   5 9182.99 1905.28   1
  -2  -7  -520266.21 2965.12   1
  -2  -7  -514619.51 1902.79   1
   2   7   620784.66 3964.07   1
   2   7   613391.47 2545.81   1
  -2  -7  -625508.84 3965.39   1
  -2  -7  -619017.37 2541.99   1
   2   7   710965.04 2404.43   1
   2   7   7 9681.59 1550.74   1
  -2  -7  -715707.65 2406.51   1
  -2  -7  -710548.13 1544.97   1
   2   7   8 5603.87 1115.55   1
   2   7   8 4136.38  722.80   1
  -2  -7  -8 7914.15 1123.33   1
  -2  -7  -8 4839.65  717.20   1
   2   7   9 4253.14 1012.85   1
   2   7   9 4279.66  653.48   1
  -2  -7  -9 4581.92  648.43   1
   2   7  10 7366.51 1411.79   1
   2   7  10 5751.19  904.91   1
  -2  -7 -10 6413.92  900.24   1
   2   7  1113343.13 2469.36   1
   2   7  1110161.12 1586.58   1
  -2  -7 -1111409.53 1583.00   1
   2   7  12 9077.06 1666.46   1
   2   7  12 7093.68 1058.67   1
  -2  -7 -12 7321.73 1055.51   1
   2   7  13 1603.08  253.22   1
  -2  -7 -13 1631.17  251.01   1
   2   7  14  561.98  461.38   1
   2   7  14  124.85  463.82   1
   2   7  14  202.23   76.40   1
  -2  -7 -14  139.13   91.18   1
   2   7  15  389.63  605.67   1
   2   7  15  499.67  490.57   1
   2   7  15  651.39  131.38   1
  -2  -7 -15  730.65  140.47   1
   2   8   0 8332.42 1060.18   1
  -2  -8   0 2531.48 1035.72   1
   2   8   112566.61 1883.72   1
  -2  -8  -1 5803.83 1869.36   1
   2   8   2 4964.63  453.88   1
  -2  -8  -2 3363.22  424.65   1
   2   8   3  313.41  184.52   1
   2   8   3  192.95   47.21   1
  -2  -8  -3   63.20  133.17   1
  -2  -8  -3  189.41   47.75   1
   2   8   4  523.51  184.73   1
   2   8   4  208.63   52.37   1
   2   8   4  114.28   51.94   1
  -2  -8  -4  406.73  150.63   1
  -2  -8  -4  250.02   56.62   1
   2   8   5 3236.86  570.25   1
   2   8   5 1444.12  359.24   1
  -2  -8  -5 4030.74  564.73   1
  -2  -8  -5 2880.59  358.81   1
   2   8   612925.05 2354.28   1
   2   8   6 7343.48 1512.91   1
  -2  -8  -618295.83 2355.80   1
  -2  -8  -611464.95 1510.83   1
   2   8   7 6367.06 1455.33   1
   2   8   7 5095.09  940.53   1
  -2  -8  -7 9137.38 1460.04   1
  -2  -8  -7 6979.36  937.15   1
   2   8   8  230.22  189.26   1
   2   8   8  169.99   65.75   1
  -2  -8  -8  275.74  211.81   1
  -2  -8  -8  122.88   70.90   1
   2   8   9 2234.18  593.80   1
   2   8   9 2277.11  383.05   1
  -2  -8  -9 4139.11  599.19   1
  -2  -8  -9 2448.72  376.53   1
   2   8  10  -24.47  254.35   1
   2   8  10  125.05   74.44   1
  -2  -8 -10  145.41   74.75   1
   2   8  11 4825.79 1063.41   1
   2   8  11 4420.44  675.52   1
  -2  -8 -11 4672.01  668.59   1
   2   8  12 6925.36 1223.08   1
   2   8  12 4877.35  749.64   1
  -2  -8 -12 5143.34  744.81   1
   2   8  13  514.24  360.75   1
   2   8  13  287.76   87.29   1
  -2  -8 -13  272.29   85.64   1
   2   8  14  676.97  585.59   1
   2   8  14  465.90  107.61   1
  -2  -8 -14  469.76  107.50   1
   2   9   0 2349.87  429.97   1
  -2  -9   0 1081.80  366.31   1
   2   9   116963.26 2297.86   1
  -2  -9  -1 6200.49 2273.48   1
   2   9   2 8573.85 1181.82   1
  -2  -9  -2 4419.33 1157.79   1
  -2  -9  -2 4917.92  750.89   1
   2   9   3 1142.11  332.04   1
  -2  -9  -3  821.28  249.41   1
   2   9   4 3031.08  564.01   1
   2   9   4 2509.02  345.03   1
  -2  -9  -4 2678.12  539.30   1
  -2  -9  -4 2013.86  345.10   1
   2   9   5  486.99  215.15   1
   2   9   5  399.40   65.67   1
   2   9   5   22.81   61.65   1
  -2  -9  -5  478.57  164.09   1
  -2  -9  -5  307.37   67.10   1
   2   9   610232.64 1562.14   1
   2   9   6 8119.34  996.74   1
   2   9   6 2735.51  997.16   1
  -2  -9  -610601.53 1553.20   1
  -2  -9  -6 8018.10  997.44   1
   2   9   7 8691.15 1685.90   1
   2   9   7 5685.59 1082.94   1
  -2  -9  -7 9731.91 1676.15   1
  -2  -9  -7 8287.58 1079.31   1
   2   9   8  569.90  268.30   1
   2   9   8  501.47  133.99   1
  -2  -9  -8  921.10  237.42   1
  -2  -9  -8  724.60  119.47   1
   2   9   9  783.48  338.88   1
  -2  -9  -9 1295.35  310.30   1
  -2  -9  -9 1072.29  177.61   1
   2   9  10  217.23  330.30   1
   2   9  10  273.06   75.17   1
  -2  -9 -10  344.34  291.24   1
  -2  -9 -10   81.88   81.61   1
   2   9  11 1974.02  583.76   1
   2   9  11 1387.46  269.69   1
  -2  -9 -11 1912.11  266.82   1
   2   9  12 5181.14  907.54   1
   2   9  12 3204.73  538.45   1
  -2  -9 -12 3810.45  537.56   1
   2   9  13  700.75  474.45   1
   2   9  13  524.30  125.83   1
  -2  -9 -13  695.13  127.71   1
   2  10   0 6632.83 1030.73   1
  -2 -10   0 3350.71  996.01   1
   2  10   128362.11 3710.27   1
  -2 -10  -1 9984.87 3685.82   1
   2  10   229155.19 4211.49   1
  -2 -10  -212405.47 4192.64   1
   2  10   310569.43 1164.28   1
   2  10   3 7424.92  729.53   1
  -2 -10  -3 6983.78 1136.10   1
  -2 -10  -3 6595.93  732.44   1
   2  10   4  758.34  251.76   1
   2  10   4  561.64   96.35   1
  -2 -10  -4  500.92  198.23   1
  -2 -10  -4  496.35  100.35   1
   2  10   5 3880.98  550.91   1
   2  10   5 3174.21  324.96   1
  -2 -10  -5 4018.64  520.53   1
  -2 -10  -5 2513.26  325.59   1
   2  10   613134.42 1826.59   1
   2  10   611108.20 1158.76   1
  -2 -10  -614368.71 1809.34   1
  -2 -10  -6 9919.83 1158.12   1
   2  10   715657.88 3298.23   1
   2  10   716078.14 2112.52   1
  -2 -10  -714712.82 3289.73   1
  -2 -10  -713396.61 2111.99   1
   2  10   8 7127.64 1353.99   1
   2  10   8 7560.43  861.80   1
  -2 -10  -810461.13 1351.01   1
  -2 -10  -8 7232.96  862.02   1
   2  10   9 2357.15  558.97   1
   2  10   9 1664.49  340.71   1
  -2 -10  -9 4236.76  544.40   1
   2  10  10 3055.74  679.86   1
   2  10  10 1633.50  345.86   1
  -2 -10 -10 3593.23  569.23   1
  -2 -10 -10 2403.81  345.10   1
   2  10  11 4998.85  943.43   1
   2  10  11 3108.53  553.28   1
  -2 -10 -11 4051.90  549.45   1
   2  10  12 4720.21  977.38   1
   2  10  12 2878.42  505.74   1
  -2 -10 -12 3669.40  505.12   1
   2  11   0 4036.05  789.49   1
  -2 -11   0 2838.19  740.30   1
   2  11   115147.43 2305.08   1
  -2 -11  -1 7886.46 2271.34   1
   2  11   215805.28 2311.00   1
  -2 -11  -2 7086.52 2275.13   1
   2  11   3 9613.09 1288.20   1
   2  11   3 5150.29  804.32   1
  -2 -11  -3 6690.47 1255.58   1
   2  11   4 6397.69  995.67   1
   2  11   4 4179.75  619.49   1
  -2 -11  -4 6083.84  971.23   1
  -2 -11  -4 3828.09  623.64   1
   2  11   5 6907.57 1153.24   1
   2  11   5 5550.81  725.75   1
  -2 -11  -5 6669.77 1133.93   1
  -2 -11  -5 3985.80  726.47   1
   2  11   6 5483.20  832.23   1
   2  11   6 4115.91  498.33   1
  -2 -11  -6 6523.92  789.02   1
  -2 -11  -6 4495.69  500.30   1
   2  11   7 5290.51  864.08   1
   2  11   7 4615.49  534.83   1
  -2 -11  -7 5520.99  831.93   1
  -2 -11  -7 4721.11  535.40   1
   2  11   8 1634.88  405.58   1
   2  11   8 1525.21  209.30   1
  -2 -11  -8 2684.82  370.34   1
  -2 -11  -8 1594.42  213.19   1
   2  11   9 3861.88  748.40   1
   2  11   9 3201.45  381.43   1
  -2 -11  -9 5272.76  687.53   1
  -2 -11  -9 2991.37  382.95   1
   2  11  10 6406.77  918.39   1
   2  11  10 3948.70  480.40   1
  -2 -11 -10 6745.12  851.12   1
  -2 -11 -10 3934.42  483.11   1
   2  11  11 5174.57  967.87   1
   2  11  11 2847.03  434.67   1
   2  11  11 2122.30  442.81   1
  -2 -11 -11 3441.30  441.02   1
   2  12   0 1740.19  587.07   1
  -2 -12   0 1960.43  511.28   1
   2  12   1  598.23  340.36   1
  -2 -12  -1  523.68  301.93   1
   2  12   2  222.16  314.65   1
  -2 -12  -2  361.60  279.40   1
   2  12   3  203.66  329.52   1
  -2 -12  -3  291.47  275.65   1
   2  12   4 1499.66  404.98   1
   2  12   4  704.31  132.01   1
  -2 -12  -4 1210.70  326.87   1
  -2 -12  -4  697.29  142.24   1
   2  12   5 3642.91  497.32   1
   2  12   5 1756.98  218.50   1
  -2 -12  -5 3785.38  433.21   1
  -2 -12  -5 1636.64  224.05   1
   2  12   6 1660.19  484.82   1
   2  12   6  843.48  155.40   1
  -2 -12  -6 1831.23  332.01   1
  -2 -12  -6  667.95  153.85   1
   2  12   7 -149.08  456.49   1
   2  12   7   40.07   72.52   1
   2  12   7   16.71   69.35   1
  -2 -12  -7  287.94  238.48   1
  -2 -12  -7   63.29   66.28   1
   2  12   8  499.79  377.50   1
   2  12   8  278.99   88.30   1
   2  12   8   81.66   87.79   1
  -2 -12  -8  513.45  285.94   1
  -2 -12  -8  309.48   85.57   1
   2  12   9  433.06  644.84   1
  -2 -12  -9  539.56  387.68   1
  -2 -12  -9  184.25   93.51   1
   2  13   1  941.51  508.94   1
  -2 -13  -1  753.60  365.36   1
   2  13   2  121.08  360.11   1
  -2 -13  -2  298.71  307.88   1
   2  13   3  618.07  375.36   1
  -2 -13  -3  479.40  323.24   1
   2  13   4  677.23  372.54   1
  -2 -13  -4  382.00  378.74   1
   2  13   5 3805.03  559.17   1
   2  13   5 1305.10  190.70   1
  -2 -13  -5 3807.06  463.70   1
  -2 -13  -5 1399.40  203.59   1
   2  13   6 2742.81  833.58   1
  -2 -13  -6 3510.69  787.25   1
   3 -10   0 1409.58  361.30   1
   3 -10   0  986.95  166.07   1
  -3  10   0 1676.27  425.83   1
  -3  10   0  742.39  149.55   1
  -3  10   0  652.64  149.76   1
   3 -10   1   32.50  297.62   1
  -3  10  -1  199.21  360.08   1
  -3  10  -1    0.26   52.16   1
  -3  10  -1   62.70   69.96   1
   3 -10   2 2218.28  448.67   1
  -3  10  -2 2627.08  553.09   1
  -3  10  -2 1309.00  223.50   1
  -3  10  -2 1255.90  228.27   1
   3 -10   3 1212.36  443.85   1
  -3  10  -3 1606.01  483.04   1
   3  -9   0 1048.26  387.05   1
   3  -9   0 1028.06  190.02   1
  -3   9   0 1674.18  416.98   1
  -3   9   0  993.87  172.05   1
  -3   9   0  979.01  177.50   1
   3  -9   1   54.34  310.18   1
   3  -9   1  116.64   71.56   1
  -3   9  -1   44.89  333.91   1
  -3   9  -1   37.62   57.00   1
  -3   9  -1   96.10   77.98   1
   3  -9   2 3807.65  727.83   1
  -3   9  -2 3769.39  736.05   1
  -3   9  -2 2798.35  428.65   1
  -3   9  -2 2823.49  431.98   1
   3  -9   3 8136.31 1504.59   1
   3  -9   3 5993.93  952.09   1
  -3   9  -3 9228.90 1507.20   1
  -3   9  -3 6828.16  948.73   1
  -3   9  -3 6395.88  948.06   1
   3  -9   4 1004.94  387.90   1
   3  -9   4 1032.94  176.37   1
  -3   9  -4 1035.92  373.01   1
  -3   9  -4  846.44  157.80   1
  -3   9  -4  783.73  167.40   1
   3  -9   5  146.17  289.28   1
   3  -9   5  137.41   81.07   1
  -3   9  -5  -95.66  385.68   1
  -3   9  -5   34.26   59.14   1
  -3   9  -5   -8.58   93.94   1
   3  -9   6  155.93  286.32   1
  -3   9  -6  151.95  490.46   1
  -3   9  -6   62.23   94.72   1
   3  -8   0 2785.64  649.03   1
   3  -8   0 2698.72  412.55   1
  -3   8   0 3748.15  680.30   1
  -3   8   0 2691.20  402.60   1
  -3   8   0 2651.68  405.68   1
   3  -8   1 2149.59  565.14   1
   3  -8   1 2412.00  357.20   1
  -3   8  -1 3033.67  595.40   1
  -3   8  -1 2274.38  346.99   1
  -3   8  -1 2209.45  346.17   1
   3  -8   2  360.05  227.05   1
   3  -8   2  -24.68   88.59   1
  -3   8  -2   22.09  280.71   1
  -3   8  -2   15.00   57.20   1
  -3   8  -2   51.20   62.85   1
   3  -8   3  280.02  243.49   1
   3  -8   3  334.33  106.73   1
  -3   8  -3  476.97  286.06   1
  -3   8  -3  319.92   82.65   1
  -3   8  -3  292.24   87.56   1
   3  -8   4  226.60  233.77   1
   3  -8   4  -12.39   72.82   1
  -3   8  -4   85.89  261.01   1
  -3   8  -4   98.46   68.89   1
  -3   8  -4   -1.18   65.83   1
   3  -8   5   82.52  242.93   1
   3  -8   5  197.94   97.53   1
  -3   8  -5  292.59  285.52   1
  -3   8  -5  117.08   73.59   1
  -3   8  -5  184.31   90.09   1
   3  -8   6 1133.23  416.29   1
   3  -8   6 1096.08  195.54   1
  -3   8  -6 1457.84  435.57   1
  -3   8  -6  999.65  183.37   1
  -3   8  -6 1095.31  191.00   1
   3  -8   7  394.28  308.08   1
   3  -8   7  352.76  118.59   1
  -3   8  -7  113.97  387.74   1
  -3   8  -7  379.87   97.69   1
  -3   8  -7  334.47  111.29   1
   3  -8   8  268.06  309.60   1
   3  -8   8  296.92   96.58   1
  -3   8  -8  116.84  400.51   1
  -3   8  -8  209.87  101.20   1
  -3   8  -8  204.16   97.55   1
   3  -7   0 1135.47  308.04   1
   3  -7   0  838.73  155.72   1
  -3   7   0  893.64  341.02   1
  -3   7   0  938.94  149.01   1
  -3   7   0  934.58  151.84   1
   3  -7   1 1830.24  471.02   1
   3  -7   1 1712.03  279.28   1
   3  -7   1 1813.21  282.52   1
  -3   7  -1 2753.86  494.24   1
  -3   7  -1 1858.26  276.68   1
  -3   7  -1 1852.66  278.18   1
   3  -7   2 1048.93  350.63   1
   3  -7   2 1125.80  182.09   1
   3  -7   2 1106.47  188.59   1
  -3   7  -2 1662.31  409.75   1
  -3   7  -2 1093.72  179.37   1
  -3   7  -2 1130.27  181.94   1
   3  -7   3 3052.41  811.31   1
   3  -7   3 3449.26  500.78   1
  -3   7  -3 3977.95  817.83   1
  -3   7  -3 3136.74  495.16   1
  -3   7  -3 3558.01  498.47   1
   3  -7   4 3120.42  764.34   1
   3  -7   4 3271.50  484.36   1
  -3   7  -4 3233.76  764.01   1
  -3   7  -4 3183.24  478.29   1
  -3   7  -4 3309.65  480.18   1
   3  -7   5  917.25  372.27   1
   3  -7   5  933.45  175.35   1
  -3   7  -5  995.76  346.90   1
  -3   7  -5 1037.88  170.91   1
  -3   7  -5 1105.91  173.43   1
   3  -7   6  442.26  331.53   1
   3  -7   6  338.36  100.22   1
  -3   7  -6  191.63  334.18   1
  -3   7  -6  247.10   75.01   1
  -3   7  -6  279.24   96.77   1
   3  -7   7 -204.68  263.88   1
   3  -7   7   61.73   89.41   1
  -3   7  -7 -123.74  422.10   1
  -3   7  -7   92.18   63.70   1
  -3   7  -7   65.75   66.06   1
   3  -7   8 1647.37  446.00   1
   3  -7   8 1411.85  247.90   1
  -3   7  -8 1413.29  527.21   1
  -3   7  -8 1656.85  251.82   1
   3  -7   9 2330.19  575.37   1
   3  -7   9 2212.10  334.82   1
  -3   7  -9 1617.38  666.62   1
  -3   7  -9 2207.31  331.14   1
  -3   7  -9 2094.78  333.69   1
   3  -6   0 1268.43  354.00   1
   3  -6   0 1126.06  189.64   1
   3  -6   0 1025.88  190.66   1
  -3   6   0 1435.17  366.93   1
  -3   6   0 1254.64  185.75   1
  -3   6   0 1261.67  190.83   1
   3  -6   1 7584.28 1380.52   1
   3  -6   1 6087.83  879.20   1
   3  -6   1 6686.49  883.39   1
  -3   6  -1 7596.48 1379.61   1
  -3   6  -1 6452.82  878.63   1
  -3   6  -1 5039.88  877.79   1
   3  -6   2 4053.04 1059.52   1
   3  -6   2 4394.05  665.71   1
   3  -6   2 4688.83  667.86   1
  -3   6  -2 5046.45 1046.36   1
  -3   6  -2 4674.52  663.39   1
  -3   6  -2 4534.10  663.88   1
   3  -6   3  304.81  261.10   1
   3  -6   3  399.90   87.45   1
  -3   6  -3  664.53  251.50   1
  -3   6  -3  485.27   85.75   1
  -3   6  -3  382.88   83.15   1
   3  -6   4 2092.33  544.94   1
   3  -6   4 2073.00  327.17   1
  -3   6  -4 2558.39  532.01   1
  -3   6  -4 2141.91  323.23   1
  -3   6  -4 2226.67  325.56   1
   3  -6   5  120.39  246.94   1
   3  -6   5   38.33   52.32   1
  -3   6  -5  117.14  234.91   1
  -3   6  -5   23.72   51.67   1
  -3   6  -5   53.32   53.06   1
   3  -6   6 6524.11 1552.79   1
   3  -6   6 7024.59  995.86   1
  -3   6  -6 7103.90 1550.55   1
  -3   6  -6 6842.75  992.38   1
  -3   6  -6 6769.29  993.97   1
   3  -6   7 7857.14 1647.70   1
   3  -6   7 7778.46 1051.36   1
  -3   6  -7 8913.54 1669.33   1
  -3   6  -7 6799.31 1047.58   1
  -3   6  -7 6946.88 1049.34   1
   3  -6   8  160.01  344.31   1
   3  -6   8  308.56   89.22   1
  -3   6  -8  356.33  359.76   1
  -3   6  -8  346.30   99.13   1
  -3   6  -8  272.74   86.86   1
   3  -6   9 1062.43  378.75   1
   3  -6   9 1084.69  191.59   1
  -3   6  -9 1373.26  551.73   1
  -3   6  -9 1095.08  188.61   1
  -3   6  -9 1263.92  195.40   1
   3  -6  10  368.52  283.52   1
   3  -6  10  275.88   85.02   1
  -3   6 -10  389.27  383.36   1
  -3   6 -10  233.23   90.10   1
  -3   6 -10  277.50  100.88   1
   3  -6  11  304.78  344.89   1
   3  -6  11  929.76  157.86   1
  -3   6 -11  364.43  523.27   1
  -3   6 -11  633.74  156.36   1
  -3   6 -11 1066.15  159.73   1
   3  -5   0  821.28  285.44   1
   3  -5   0  530.37  103.32   1
   3  -5   0  455.44  102.18   1
  -3   5   0  671.83  254.61   1
  -3   5   0  593.42   98.62   1
  -3   5   0  591.82  103.27   1
   3  -5   117942.69 3920.60   1
   3  -5   117533.80 2510.23   1
   3  -5   117827.75 2512.43   1
  -3   5  -117959.23 3913.60   1
  -3   5  -118039.98 2508.80   1
  -3   5  -116959.36 2508.73   1
   3  -5   222888.97 4608.89   1
   3  -5   219902.80 2951.68   1
   3  -5   220562.64 2953.98   1
  -3   5  -224200.80 4605.50   1
  -3   5  -220699.92 2950.53   1
  -3   5  -221047.02 2951.34   1
   3  -5   3  983.64  370.57   1
   3  -5   3 1041.90  168.69   1
  -3   5  -3 1286.57  313.09   1
  -3   5  -3 1022.25  164.98   1
  -3   5  -3 1066.79  167.38   1
   3  -5   4 2558.83  646.32   1
   3  -5   4 2624.36  391.31   1
  -3   5  -4 3033.94  642.96   1
  -3   5  -4 2691.70  388.75   1
  -3   5  -4 2529.92  390.85   1
   3  -5   5  776.47  360.26   1
   3  -5   5  618.51  115.86   1
  -3   5  -5  724.73  263.67   1
  -3   5  -5  677.95  116.15   1
  -3   5  -5  640.46  115.24   1
   3  -5   6 2826.51  716.99   1
   3  -5   6 2719.93  426.95   1
  -3   5  -6 3121.65  698.60   1
  -3   5  -6 2936.65  425.63   1
  -3   5  -6 2947.56  427.62   1
   3  -5   711576.60 2360.99   1
   3  -5   710370.50 1510.54   1
  -3   5  -711127.83 2351.19   1
  -3   5  -710763.56 1509.35   1
  -3   5  -710175.33 1511.55   1
   3  -5   8 3309.65  804.82   1
   3  -5   8 3081.31  496.27   1
  -3   5  -8 4418.05  826.85   1
  -3   5  -8 3726.25  496.05   1
  -3   5  -8 3039.51  498.73   1
   3  -5   9  250.44  366.33   1
   3  -5   9  123.42   68.39   1
  -3   5  -9  236.29  424.54   1
  -3   5  -9   86.68   70.37   1
   3  -5  10  456.20  372.55   1
   3  -5  10  608.10  123.86   1
  -3   5 -10  503.38  418.90   1
  -3   5 -10  711.94  132.75   1
  -3   5 -10  591.20  136.87   1
   3  -5  11  -30.07  278.35   1
   3  -5  11    1.60   65.43   1
  -3   5 -11   12.77  362.17   1
  -3   5 -11   -7.41   71.01   1
  -3   5 -11   31.68   78.34   1
   3  -5  12  482.16  377.62   1
   3  -5  12  685.83  122.82   1
  -3   5 -12   20.60  525.59   1
  -3   5 -12  510.83  125.55   1
  -3   5 -12  652.69  142.08   1
   3  -4   0 8264.43 1701.61   1
   3  -4   0 7096.23 1087.20   1
   3  -4   0 7309.82 1090.17   1
  -3   4   0 5502.54 1690.62   1
  -3   4   0 8042.48 1087.87   1
  -3   4   0 8000.09 1087.79   1
   3  -4   1   67.31  243.67   1
   3  -4   1   66.76   35.56   1
   3  -4   1   19.71   40.77   1
  -3   4  -1  264.10  211.88   1
  -3   4  -1   19.83   29.44   1
  -3   4  -1   30.62   29.35   1
   3  -4   2 2685.80  609.16   1
   3  -4   2 2492.57  353.51   1
   3  -4   2 2480.54  354.21   1
  -3   4  -2 2461.95  561.04   1
  -3   4  -2 2443.22  350.57   1
  -3   4  -2 2081.32  352.14   1
   3  -4   3  307.91  250.60   1
   3  -4   3  120.78   50.41   1
   3  -4   3   46.69   52.94   1
  -3   4  -3  107.47  198.43   1
  -3   4  -3   55.91   41.54   1
  -3   4  -3  121.94   49.61   1
   3  -4   4 6165.68 1329.83   1
   3  -4   4 5841.89  848.94   1
  -3   4  -4 6029.15 1320.16   1
  -3   4  -4 5829.95  847.24   1
  -3   4  -4 5913.83  849.00   1
   3  -4   5 6928.68 1564.27   1
   3  -4   5 6961.67 1002.47   1
  -3   4  -5 7135.23 1558.83   1
  -3   4  -5 7131.78 1001.39   1
  -3   4  -5 6692.72 1003.52   1
   3  -4   6  802.33  276.21   1
   3  -4   6  515.29  106.68   1
  -3   4  -6  636.56  246.11   1
  -3   4  -6  661.68  105.26   1
  -3   4  -6  557.33  113.86   1
   3  -4   7  796.73  337.34   1
   3  -4   7  671.14  122.50   1
  -3   4  -7  769.42  248.36   1
  -3   4  -7  722.66  121.72   1
  -3   4  -7  685.46  125.74   1
   3  -4   8  457.11  389.36   1
   3  -4   8  107.71   55.40   1
  -3   4  -8  377.65  307.21   1
  -3   4  -8  184.65   59.44   1
  -3   4  -8  103.26   55.95   1
   3  -4   9 1282.08  432.29   1
   3  -4   9  952.49  158.39   1
  -3   4  -9 1397.87  355.36   1
  -3   4  -9  844.61  160.30   1
   3  -4  10  727.10  372.54   1
   3  -4  10  596.18  114.55   1
  -3   4 -10  926.27  321.40   1
  -3   4 -10  571.88  117.88   1
  -3   4 -10  542.90  118.74   1
   3  -4  11  557.19  375.64   1
   3  -4  11  356.12   92.81   1
  -3   4 -11  130.10  348.85   1
  -3   4 -11  375.96   97.80   1
  -3   4 -11  428.50  104.32   1
   3  -4  12  789.76  402.81   1
   3  -4  12  992.23  173.22   1
  -3   4 -12  583.78  504.07   1
  -3   4 -12  904.68  171.79   1
  -3   4 -12 1159.71  179.15   1
   3  -4  13  485.20  419.14   1
   3  -4  13 1129.90  182.75   1
  -3   4 -13  975.40  184.79   1
  -3   4 -13 1272.51  204.50   1
   3  -3   0 6514.45 1656.53   1
   3  -3   0 7038.73 1063.42   1
   3  -3   0 7218.13 1065.53   1
  -3   3   0 4973.11 1646.51   1
  -3   3   0 7775.53 1063.48   1
  -3   3   0 7872.59 1063.48   1
   3  -3   1 1634.24  385.27   1
   3  -3   1 1444.50  228.97   1
   3  -3   1 1322.38  230.38   1
  -3   3  -1  995.81  368.10   1
  -3   3  -1 1635.18  227.81   1
  -3   3  -1 1653.45  229.15   1
   3  -3   2 2379.29  601.01   1
   3  -3   2 2543.54  382.06   1
   3  -3   2 2720.06  384.30   1
  -3   3  -2 2026.77  597.84   1
  -3   3  -2 2607.54  380.79   1
  -3   3  -2 2604.25  382.51   1
   3  -3   3 2538.54  726.24   1
   3  -3   3 2916.92  460.43   1
   3  -3   3 3335.07  462.85   1
  -3   3  -3 2762.21  714.61   1
  -3   3  -3 3158.55  459.62   1
  -3   3  -3 3316.36  462.03   1
   3  -3   4  107.94  201.76   1
   3  -3   4  371.20   72.58   1
  -3   3  -4  486.34  187.62   1
  -3   3  -4  389.23   71.67   1
  -3   3  -4  359.83   75.74   1
   3  -3   5  818.80  267.55   1
   3  -3   5  634.96  108.61   1
  -3   3  -5  136.95  233.14   1
  -3   3  -5  552.84  106.41   1
  -3   3  -5  665.85  109.76   1
   3  -3   6 1045.38  422.50   1
   3  -3   6 1243.72  194.31   1
  -3   3  -6 1234.42  322.91   1
  -3   3  -6 1310.60  194.88   1
  -3   3  -6 1132.64  196.82   1
   3  -3   7 3256.66  757.81   1
   3  -3   7 3172.22  466.43   1
  -3   3  -7 4156.09  729.72   1
  -3   3  -7 3177.88  466.25   1
  -3   3  -7 2961.24  468.74   1
   3  -3   8 5004.44  980.09   1
   3  -3   8 4115.23  595.53   1
  -3   3  -8 5220.70  936.68   1
  -3   3  -8 3984.02  595.94   1
  -3   3  -8 3828.37  598.38   1
   3  -3   9 1171.47  335.20   1
   3  -3   9  764.19  138.06   1
  -3   3  -9 1204.33  312.09   1
  -3   3  -9  902.30  142.83   1
  -3   3  -9  696.29  141.09   1
   3  -3  10 1849.10  480.88   1
   3  -3  10 1302.66  210.79   1
  -3   3 -10 1681.44  458.85   1
  -3   3 -10 1337.41  212.77   1
  -3   3 -10 1288.24  214.09   1
   3  -3  11  103.20  365.46   1
   3  -3  11   32.90   47.59   1
  -3   3 -11  358.03  357.49   1
  -3   3 -11   43.34   48.21   1
  -3   3 -11   58.44   51.09   1
   3  -3  12  205.70  367.85   1
   3  -3  12  275.78   67.38   1
  -3   3 -12  452.14  437.01   1
  -3   3 -12  203.04   66.16   1
  -3   3 -12  266.55   72.30   1
   3  -3  13 2022.97  811.01   1
   3  -3  13 3452.03  483.36   1
  -3   3 -13 2924.12  484.72   1
  -3   3 -13 3628.93  491.06   1
   3  -2   0 7148.31 1941.29   1
   3  -2   0 8423.83 1253.15   1
   3  -2   0 8853.47 1254.80   1
  -3   2   0 6670.58 1943.46   1
  -3   2   0 9425.00 1253.38   1
  -3   2   0 8692.17 1252.90   1
   3  -2   1 5941.28 1459.22   1
   3  -2   1 6636.32  940.64   1
   3  -2   1 6946.37  943.08   1
  -3   2  -1 5217.58 1455.75   1
  -3   2  -1 7030.37  940.50   1
  -3   2  -1 5824.71  940.72   1
   3  -2   2 1154.91  318.65   1
   3  -2   2 1136.71  178.63   1
   3  -2   2 1126.74  181.03   1
  -3   2  -2  775.35  299.25   1
  -3   2  -2 1162.98  177.45   1
  -3   2  -2 1235.03  180.01   1
   3  -2   3  813.35  242.25   1
   3  -2   3  630.47  108.90   1
   3  -2   3  609.05  111.06   1
  -3   2  -3  517.87  213.05   1
  -3   2  -3  643.56  108.03   1
  -3   2  -3  725.55  111.32   1
   3  -2   4  315.85  198.61   1
   3  -2   4  272.14   58.12   1
  -3   2  -4  459.64  161.09   1
  -3   2  -4  260.62   58.43   1
  -3   2  -4  274.75   63.51   1
   3  -2   521972.75 4931.25   1
   3  -2   522223.37 3162.87   1
  -3   2  -522901.33 4929.15   1
  -3   2  -521398.43 3162.37   1
  -3   2  -523079.28 3165.33   1
   3  -2   615435.38 3346.54   1
   3  -2   615339.39 2150.70   1
  -3   2  -614504.03 3346.23   1
  -3   2  -615222.90 2150.58   1
  -3   2  -614541.39 2153.11   1
   3  -2   7  469.15  202.05   1
   3  -2   7  396.36   88.95   1
  -3   2  -7  500.78  190.14   1
  -3   2  -7  577.64   92.86   1
  -3   2  -7  441.32   91.50   1
   3  -2   8 3019.18  770.26   1
   3  -2   8 3411.19  501.49   1
  -3   2  -8 3812.10  770.40   1
  -3   2  -8 3643.00  501.47   1
  -3   2  -8 3074.81  503.72   1
   3  -2   9  -56.05  229.75   1
   3  -2   9  164.79   60.23   1
  -3   2  -9   56.95  163.77   1
  -3   2  -9  123.21   64.06   1
  -3   2  -9  171.77   64.06   1
   3  -2  10 6182.99 1070.41   1
   3  -2  10 4448.14  641.44   1
  -3   2 -10 5861.59 1030.27   1
  -3   2 -10 4153.57  644.22   1
  -3   2 -10 4181.37  644.39   1
   3  -2  1111879.64 2280.94   1
   3  -2  11 9993.08 1452.02   1
  -3   2 -1113433.87 2277.30   1
  -3   2 -1110212.50 1454.43   1
  -3   2 -11 9394.34 1455.04   1
   3  -2  12 1812.40  601.23   1
   3  -2  12 1692.96  271.58   1
  -3   2 -12 1667.56  271.75   1
  -3   2 -12 2045.00  276.53   1
   3  -2  13  398.21   87.92   1
  -3   2 -13  392.60   88.91   1
  -3   2 -13  446.71   97.88   1
   3  -2  14  364.75  323.17   1
   3  -2  14  518.72  107.22   1
  -3   2 -14  503.35  112.45   1
  -3   2 -14  501.69  110.20   1
   3  -1   027947.04 8503.70   1
   3  -1   038224.21 5447.94   1
   3  -1   037874.32 5449.19   1
  -3   1   035891.82 8504.98   1
  -3   1   039341.99 5448.12   1
  -3   1   039238.10 5447.84   1
   3  -1   121068.67 4932.78   1
   3  -1   122803.46 3165.29   1
   3  -1   122252.12 3166.83   1
  -3   1  -119112.60 4932.03   1
  -3   1  -121435.26 3164.59   1
  -3   1  -122998.30 3165.52   1
   3  -1   2  118.17  168.16   1
   3  -1   2  -14.75   28.19   1
   3  -1   2   33.27   37.77   1
  -3   1  -2   14.73  142.01   1
  -3   1  -2   12.99   30.28   1
  -3   1  -2   -6.00   31.23   1
   3  -1   3 5587.94 1309.32   1
   3  -1   3 5531.22  846.70   1
  -3   1  -3 4707.31 1307.15   1
  -3   1  -3 6055.61  846.11   1
  -3   1  -3 6291.48  849.50   1
   3  -1   4  386.02  187.92   1
   3  -1   4  428.95   83.11   1
  -3   1  -4  417.75  167.47   1
  -3   1  -4  495.15   83.43   1
  -3   1  -4  498.75   87.42   1
   3  -1   516215.43 3473.01   1
   3  -1   515810.21 2231.84   1
  -3   1  -514765.75 3471.20   1
  -3   1  -514976.44 2231.91   1
  -3   1  -516316.72 2234.51   1
   3  -1   616810.67 2344.20   1
  -3   1  -615607.69 3646.42   1
  -3   1  -616286.67 2344.46   1
  -3   1  -616256.00 2346.74   1
   3  -1   7 3170.81  452.91   1
  -3   1  -7 3136.05  693.91   1
  -3   1  -7 3101.74  454.85   1
  -3   1  -7 2923.85  454.85   1
   3  -1   8 4139.78  906.22   1
   3  -1   8 3966.67  583.26   1
  -3   1  -8 4174.00  899.87   1
  -3   1  -8 3978.28  584.93   1
   3  -1   9  915.51  311.59   1
   3  -1   9 1055.03  180.89   1
  -3   1  -9 1450.86  314.81   1
  -3   1  -9 1226.36  189.63   1
   3  -1  10  693.56  264.71   1
   3  -1  10  715.84  116.36   1
  -3   1 -10  655.46  222.70   1
  -3   1 -10  600.33  119.58   1
   3  -1  11 4526.39 1093.01   1
   3  -1  11 4894.06  688.80   1
  -3   1 -11 4569.27  690.45   1
   3  -1  12  762.65  362.13   1
   3  -1  12  955.55  144.99   1
  -3   1 -12  793.74  143.89   1
   3  -1  13   29.12  324.39   1
   3  -1  13   29.46   43.55   1
  -3   1 -13   36.99   42.80   1
   3  -1  14  134.80  345.88   1
   3  -1  14  557.73  105.99   1
  -3   1 -14  497.72  111.29   1
   3  -1  15   17.33   48.91   1
  -3   1 -15   -2.47   59.90   1
   3   0   0 2704.54  704.25   1
   3   0   0 3168.25  456.09   1
   3   0   0 3011.03  457.23   1
  -3   0   0 3632.12  699.46   1
  -3   0   0 3156.11  456.75   1
  -3   0   0 3125.92  455.93   1
   3   0   1 5812.69 1399.33   1
   3   0   1 6353.75  904.44   1
   3   0   1 6134.48  906.37   1
  -3   0  -1 5808.05 1396.99   1
  -3   0  -1 6211.18  904.34   1
  -3   0  -1 6567.58  904.93   1
   3   0   2 1598.22  481.56   1
   3   0   2 1999.83  307.55   1
   3   0   2 2264.13  310.79   1
  -3   0  -2 1926.39  472.99   1
  -3   0  -2 2045.68  308.33   1
  -3   0  -2 2132.71  309.73   1
   3   0   323882.17 5846.21   1
   3   0   325384.25 3748.45   1
  -3   0  -322634.26 5845.42   1
  -3   0  -328251.15 3749.12   1
  -3   0  -326349.36 3750.61   1
   3   0   418323.86 4639.36   1
   3   0   421134.94 2978.07   1
  -3   0  -417451.06 4638.46   1
  -3   0  -421052.49 2978.96   1
  -3   0  -421620.82 2980.66   1
   3   0   5 2539.28  604.62   1
   3   0   5 2893.55  392.09   1
  -3   0  -5 2427.73  599.51   1
  -3   0  -5 2488.65  392.11   1
  -3   0  -5 2643.71  394.38   1
   3   0   6  927.58  256.54   1
   3   0   6 1039.71  156.75   1
  -3   0  -6  831.05  246.29   1
  -3   0  -6  946.69  157.35   1
   3   0   7   93.38  159.56   1
   3   0   7  181.35   52.93   1
  -3   0  -7  252.18  128.77   1
  -3   0  -7  186.50   51.56   1
   3   0   8 3735.11  917.64   1
   3   0   8 3918.50  594.79   1
  -3   0  -8 4422.80  915.81   1
  -3   0  -8 4274.30  598.27   1
   3   0   9 3868.80  922.17   1
   3   0   9 3974.93  596.67   1
  -3   0  -9 4263.36  599.57   1
   3   0  10 2641.72  800.00   1
   3   0  10 3572.03  518.08   1
  -3   0 -10 3593.15  520.46   1
   3   0  11  464.30  237.78   1
   3   0  11  720.17  127.29   1
  -3   0 -11  785.62  127.65   1
   3   0  12  341.12  247.83   1
   3   0  12  517.18   96.38   1
  -3   0 -12  503.53   94.79   1
   3   0  13  506.95  303.10   1
   3   0  13  315.58  401.86   1
   3   0  13 1052.51  156.78   1
  -3   0 -13  904.52  155.00   1
   3   0  14  -22.36  328.49   1
   3   0  14  280.77   76.24   1
  -3   0 -14  352.26   83.56   1
   3   0  15  100.49   57.14   1
  -3   0 -15  137.49   77.84   1
   3   1   0 3084.45  781.76   1
   3   1   0 3475.67  507.59   1
   3   1   0 3683.86  509.48   1
  -3  -1   0 3584.39  779.52   1
  -3  -1   0 3524.96  509.01   1
  -3  -1   0 3356.48  507.49   1
  -3  -1  -1  268.49   57.31   1
   3   1   1  207.19  142.68   1
   3   1   1  258.96   49.64   1
   3   1   1  209.50   53.34   1
  -3  -1  -1  232.13   48.53   1
  -3  -1  -1  200.68   52.32   1
   3   1   2  198.27  139.82   1
   3   1   2  175.69   45.78   1
   3   1   2  241.31   51.02   1
  -3  -1  -2  290.06  128.10   1
  -3  -1  -2  205.27   48.41   1
  -3  -1  -2  217.47   51.62   1
   3   1   3 3834.35  950.59   1
   3   1   3 4193.94  617.27   1
  -3  -1  -3 4212.80  949.17   1
  -3  -1  -3 4207.58  618.13   1
  -3  -1  -3 4498.89  620.34   1
   3   1   4 2361.22  547.66   1
   3   1   4 2470.60  356.03   1
  -3  -1  -4 2464.70  548.66   1
  -3  -1  -4 2180.85  356.33   1
  -3  -1  -4 2607.68  358.62   1
   3   1   5  236.00  139.85   1
   3   1   5  237.35   52.39   1
  -3  -1  -5  170.07  116.04   1
  -3  -1  -5  191.97   55.05   1
   3   1   6 2272.59  530.73   1
   3   1   6 2494.39  347.44   1
  -3  -1  -6 2164.68  348.04   1
   3   1   7 4199.15  862.39   1
   3   1   7 3829.51  562.46   1
  -3  -1  -7 3807.44  563.84   1
   3   1   8  401.79  154.52   1
   3   1   8  235.64   67.34   1
  -3  -1  -8  320.66   70.56   1
   3   1   9  269.26   72.81   1
  -3  -1  -9  290.14   70.49   1
   3   1  10  573.73  216.25   1
   3   1  10  550.19  106.97   1
  -3  -1 -10  628.81  108.28   1
   3   1  11  681.59  254.43   1
   3   1  11  740.71  123.31   1
  -3  -1 -11  664.33  120.69   1
   3   1  12 3082.60  946.35   1
   3   1  12 2742.08  938.75   1
   3   1  12 4601.37  609.22   1
  -3  -1 -12 4086.64  608.35   1
   3   1  13  272.22  222.43   1
   3   1  13  188.10  247.19   1
   3   1  13  487.47   93.84   1
  -3  -1 -13  513.94   95.49   1
   3   1  14  258.95  222.23   1
   3   1  14  217.73  363.06   1
   3   1  14  760.02  119.46   1
  -3  -1 -14  620.67  121.97   1
   3   1  15 1295.15  206.78   1
  -3  -1 -15 1296.27  212.77   1
   3   2   0 5558.67 1222.83   1
   3   2   0 5630.80  792.36   1
   3   2   0 5298.31  794.92   1
  -3  -2   0 5518.63  793.28   1
   3   2   1  237.23  131.56   1
   3   2   1  282.19   55.48   1
   3   2   1  297.73   58.26   1
  -3  -2  -1  280.44   55.45   1
   3   2   2   94.35  122.37   1
   3   2   2  164.60   37.40   1
  -3  -2  -2  149.62   40.54   1
  -3  -2  -2  142.42   41.39   1
   3   2   3 5086.09 1237.92   1
   3   2   3 5647.84  802.75   1
  -3  -2  -3 5568.05  805.36   1
   3   2   426949.28 5842.96   1
   3   2   426353.84 3747.33   1
  -3  -2  -426133.21 3749.99   1
   3   2   5 9666.04 2094.02   1
   3   2   5 9769.38 1352.22   1
  -3  -2  -5 8957.28 1354.18   1
   3   2   6  -46.30  129.72   1
   3   2   6   32.36   33.55   1
  -3  -2  -6   33.00   41.98   1
   3   2   7  947.23  254.62   1
   3   2   7 1052.03  159.97   1
  -3  -2  -7  954.85  165.45   1
   3   2   8  862.29  217.99   1
   3   2   8  776.26  140.66   1
  -3  -2  -8  887.04  141.83   1
   3   2   913390.87 2820.15   1
   3   2   912080.19 1817.38   1
  -3  -2  -913144.69 1817.31   1
   3   2  1013123.81 2778.43   1
   3   2  1014534.75 2777.49   1
   3   2  1012308.48 1788.53   1
  -3  -2 -1012255.38 1787.34   1
   3   2  11 1118.71  323.90   1
   3   2  11 1323.76  329.81   1
   3   2  11 1273.04  195.61   1
  -3  -2 -11 1196.58  194.52   1
   3   2  12  944.50  286.34   1
   3   2  12  979.97  157.31   1
  -3  -2 -12  921.47  158.14   1
   3   2  13  337.28  173.17   1
   3   2  13  148.64  237.58   1
   3   2  13  294.75   66.36   1
  -3  -2 -13  190.76   71.27   1
   3   2  14 1081.23  508.05   1
   3   2  14  645.85  506.62   1
   3   2  14 2246.41  318.76   1
  -3  -2 -14 2217.78  318.91   1
   3   2  15 5787.54  869.17   1
  -3  -2 -15 6162.64  868.04   1
   3   2  16  937.07  171.02   1
  -3  -2 -16 1102.54  173.64   1
   3   3   011391.05 2431.89   1
   3   3   011552.37 1565.72   1
   3   3   0 9942.80 1569.11   1
   3   3   1 1795.48  223.79   1
  -3  -3  -1 1147.88  224.70   1
   3   3   2 9098.11 1345.48   1
  -3  -3  -210020.37 1348.41   1
  -3  -3  -2 9185.20 1348.27   1
   3   3   3   79.64   30.14   1
  -3  -3  -3   51.11   32.92   1
  -3  -3  -3   97.86   33.92   1
   3   3   420256.20 2821.59   1
  -3  -3  -419139.82 2825.02   1
   3   3   527854.46 6271.01   1
   3   3   530031.17 4022.45   1
  -3  -3  -525902.44 4025.87   1
   3   3   6  532.51  146.69   1
   3   3   6  363.87   69.06   1
  -3  -3  -6  252.03   74.37   1
   3   3   7 7225.86 1952.42   1
   3   3   710914.06 1955.25   1
   3   3   7 8008.57 1263.39   1
  -3  -3  -7 9583.31 1266.34   1
   3   3   8 1503.24  453.75   1
   3   3   8 2633.97  459.03   1
   3   3   8 1911.05  302.52   1
  -3  -3  -8 2065.34  302.31   1
   3   3   9  626.08  258.83   1
   3   3   9 1251.60  266.92   1
   3   3   9 1025.43  172.97   1
  -3  -3  -9 1171.55  172.47   1
   3   3  10 9944.96 2153.09   1
   3   3  1010688.35 2152.85   1
   3   3  10 9580.70 1389.32   1
  -3  -3 -10 9525.67 1388.74   1
   3   3  11 1803.92  472.87   1
   3   3  11 1981.27  295.98   1
  -3  -3 -11 1918.72  297.93   1
   3   3  12  961.91  384.43   1
   3   3  12 1435.86  416.04   1
   3   3  12 1657.49  251.86   1
  -3  -3 -12 1765.68  253.78   1
   3   3  13 1690.27  511.67   1
   3   3  13 1310.05  527.59   1
   3   3  13 2215.47  329.45   1
  -3  -3 -13 2331.53  329.96   1
   3   3  14  168.94  165.03   1
   3   3  14  293.43  270.03   1
   3   3  14  -30.09   45.43   1
  -3  -3 -14   15.26   46.60   1
   3   3  15   69.98  240.93   1
   3   3  15  256.91  362.29   1
   3   3  15  784.28  121.58   1
  -3  -3 -15  610.68  124.69   1
   3   3  16  228.61   73.44   1
  -3  -3 -16  243.72   83.87   1
   3   4   0 2683.32  601.31   1
   3   4   1 4494.14  774.35   1
   3   4   1 3539.25  502.63   1
  -3  -4  -1 3237.15  506.57   1
  -3  -4  -1 3365.97  502.89   1
   3   4   241710.67 8246.99   1
   3   4   238818.11 5281.18   1
  -3  -4  -232088.20 5286.15   1
  -3  -4  -237894.89 5285.09   1
   3   4   316031.34 3186.65   1
   3   4   314040.24 2048.51   1
   3   4   4   32.28  100.59   1
   3   4   4   26.42   27.56   1
  -3  -4  -4   21.84   34.63   1
   3   4   5  230.24  122.15   1
   3   4   5  332.33   59.12   1
  -3  -4  -5  222.80   66.83   1
   3   4   6  914.47  261.37   1
   3   4   6 1132.69  166.50   1
  -3  -4  -6  981.57  166.79   1
   3   4   7 8049.17 1448.12   1
   3   4   7 5917.75  938.68   1
  -3  -4  -7 6795.82  938.83   1
   3   4   8 9923.83 2090.83   1
   3   4   813902.84 2094.58   1
   3   4   8 8239.22 1351.06   1
  -3  -4  -8 9375.83 1350.44   1
   3   4   9  840.96  265.29   1
   3   4   9 1201.95  289.68   1
   3   4   9  930.46  178.17   1
  -3  -4  -9 1291.27  179.59   1
   3   4  10   44.58  123.63   1
   3   4  10  -31.66  151.64   1
   3   4  10   43.63   50.13   1
  -3  -4 -10   67.22   57.71   1
   3   4  11 1007.29  367.02   1
   3   4  11 1340.26  398.72   1
   3   4  11 1689.88  244.45   1
  -3  -4 -11 1605.94  244.60   1
   3   4  12 1066.70  374.73   1
   3   4  12 1388.33  381.92   1
   3   4  12 1663.58  237.58   1
  -3  -4 -12 1466.93  238.49   1
   3   4  13  984.17  354.91   1
   3   4  13 1372.58  403.13   1
   3   4  13 1571.81  229.04   1
  -3  -4 -13 1433.08  227.27   1
   3   4  14  316.74  228.10   1
   3   4  14  535.76  102.09   1
  -3  -4 -14  536.38  100.61   1
   3   4  15  434.42  268.98   1
   3   4  15  587.40  389.74   1
   3   4  15  576.49  126.98   1
  -3  -4 -15  724.92  130.98   1
   3   4  16  540.47  113.27   1
  -3  -4 -16  606.41  121.51   1
   3   5   0 3358.29  749.54   1
   3   5   1  562.99  152.12   1
   3   5   2 3758.30  903.83   1
   3   5   2 4122.29  587.35   1
   3   5   3 6013.27 1256.64   1
   3   5   3 5522.62  813.97   1
  -3  -5  -3 5703.01  815.59   1
   3   5   4  571.24  160.41   1
   3   5   4  542.33   94.74   1
  -3  -5  -4  561.06   96.69   1
   3   5   5  185.23  110.46   1
   3   5   5  121.88   40.92   1
  -3  -5  -5  121.46   45.35   1
   3   5   6   57.36  102.24   1
   3   5   6  133.29   40.63   1
  -3  -5  -6  115.56   46.12   1
   3   5   7   53.20   97.30   1
   3   5   7   21.89   41.35   1
  -3  -5  -7   83.41   50.32   1
   3   5   8   16.54  100.19   1
   3   5   8   28.86   40.09   1
  -3  -5  -8   94.27   45.70   1
   3   5   9   12.83  106.81   1
   3   5   9   38.31   44.36   1
  -3  -5  -9  -33.73   48.97   1
   3   5  10  354.21  222.81   1
   3   5  10  563.67  248.93   1
   3   5  10  452.87   90.47   1
  -3  -5 -10  411.34   94.43   1
   3   5  11  543.05  216.25   1
   3   5  11  680.97  275.42   1
   3   5  11  569.57  109.98   1
  -3  -5 -11  587.25  108.45   1
   3   5  12   28.68  167.46   1
   3   5  12   -2.56  255.42   1
   3   5  12   12.18   49.71   1
  -3  -5 -12   60.97   49.18   1
   3   5  13  589.56  283.87   1
   3   5  13  932.05  332.26   1
   3   5  13  783.92  133.56   1
  -3  -5 -13  727.11  132.90   1
   3   5  14 1052.07  383.67   1
   3   5  14 1177.19  416.50   1
   3   5  14 1188.38  193.69   1
  -3  -5 -14 1167.82  190.10   1
   3   5  15 -243.54  292.39   1
   3   5  15   79.38   59.75   1
  -3  -5 -15   60.50   75.19   1
   3   5  16  391.97  453.03   1
   3   5  16  170.89  502.42   1
   3   5  16  542.05  114.43   1
  -3  -5 -16  533.59  123.80   1
   3   6   0 2313.35  507.66   1
  -3  -6   0 2206.64  515.85   1
   3   6   1  830.39  192.35   1
  -3  -6  -1  712.01  212.21   1
   3   6   2 6531.59 1568.79   1
  -3  -6  -2 7522.51 1570.38   1
   3   6   3 8912.95 1965.38   1
  -3  -6  -3 9363.22 1966.50   1
  -3  -6  -3 8739.04 1267.17   1
   3   6   4 7415.13 1447.65   1
   3   6   4 6628.86  936.97   1
  -3  -6  -4 6284.11  933.06   1
   3   6   5  149.39  121.15   1
   3   6   5  100.51   40.07   1
  -3  -6  -5  128.61   39.86   1
   3   6   6  -11.73  126.41   1
   3   6   6   37.17   32.61   1
  -3  -6  -6   37.04   35.89   1
   3   6   7 1142.85  228.05   1
   3   6   7  452.19  123.60   1
  -3  -6  -7  892.48  122.91   1
   3   6   811463.29 2285.90   1
   3   6   8 7453.58 1473.44   1
  -3  -6  -812208.96 1472.19   1
   3   6   910176.92 2234.46   1
   3   6   9 9001.40 1441.44   1
  -3  -6  -910849.26 1440.01   1
   3   6  10  697.26  272.57   1
   3   6  10  807.74  142.78   1
  -3  -6 -10  830.30  140.01   1
   3   6  11 1045.44  288.27   1
   3   6  11 1070.39  173.21   1
  -3  -6 -11  990.77  169.27   1
   3   6  12  -67.37  245.43   1
   3   6  12   50.41  300.70   1
   3   6  12   90.32   61.01   1
  -3  -6 -12   27.73   56.80   1
   3   6  13 3662.64  814.71   1
   3   6  13 4088.84  820.60   1
   3   6  13 3542.26  505.64   1
  -3  -6 -13 3195.61  503.01   1
   3   6  14 4490.55 1311.22   1
   3   6  14 5736.17 1319.45   1
   3   6  14 5873.57  831.10   1
  -3  -6 -14 5693.35  830.75   1
   3   6  15  751.91  431.16   1
   3   6  15 1190.44  194.71   1
  -3  -6 -15 1200.44  194.34   1
   3   7   0 1949.64  336.80   1
  -3  -7   0  876.70  337.10   1
   3   7   1 2778.37  616.86   1
  -3  -7  -1 2657.83  622.42   1
   3   7   2  218.94  136.72   1
  -3  -7  -2  197.19  169.40   1
   3   7   312539.27 2893.27   1
  -3  -7  -313472.72 2895.52   1
   3   7   4 6955.75 1398.49   1
   3   7   4 5497.37  903.20   1
  -3  -7  -4 8118.51 1402.84   1
  -3  -7  -4 6391.03  900.44   1
   3   7   5 1046.30  249.50   1
   3   7   5  853.75  147.56   1
  -3  -7  -5 1198.60  294.09   1
  -3  -7  -5  894.58  145.21   1
   3   7   6 5261.28  917.16   1
   3   7   6 2843.63  592.57   1
  -3  -7  -6 4853.64  591.76   1
   3   7   7 1323.06  247.74   1
   3   7   7  380.79  145.64   1
  -3  -7  -7 1196.33  143.59   1
   3   7   8 2616.39  579.44   1
   3   7   8 1599.88  376.75   1
  -3  -7  -8 3170.52  374.57   1
   3   7   9 4349.73 1100.99   1
   3   7   9 3956.30  711.71   1
  -3  -7  -9 5616.31  709.92   1
   3   7  10   24.31  248.84   1
   3   7  10   31.56   57.70   1
  -3  -7 -10   42.93   56.81   1
   3   7  11 2500.78  555.98   1
   3   7  11 2245.44  344.18   1
  -3  -7 -11 2247.01  339.75   1
   3   7  12 2246.40  515.99   1
   3   7  12 2052.49  286.11   1
  -3  -7 -12 1636.74  282.87   1
   3   7  13  157.86  267.75   1
   3   7  13   37.57  337.13   1
   3   7  13   22.96   53.32   1
  -3  -7 -13  113.22   54.47   1
   3   7  14  725.56  364.20   1
   3   7  14 1193.55  190.62   1
  -3  -7 -14 1046.77  185.45   1
   3   7  15   70.15  490.18   1
   3   7  15   -0.62  389.75   1
   3   7  15  113.70   67.00   1
  -3  -7 -15  168.10   88.07   1
   3   8   011971.89 1911.59   1
  -3  -8   0 5941.05 1904.13   1
   3   8   121425.89 3771.69   1
  -3  -8  -113209.61 3765.05   1
   3   8   2 9689.55 1909.20   1
  -3  -8  -2 7657.09 1907.22   1
   3   8   3   63.26  153.26   1
  -3  -8  -3   11.14  171.21   1
   3   8   4 2128.03  343.44   1
   3   8   4 1136.49  207.80   1
  -3  -8  -4 1622.33  344.81   1
   3   8   5  763.64  217.46   1
   3   8   5  495.33  114.94   1
  -3  -8  -5  959.87  230.56   1
  -3  -8  -5  746.48  113.47   1
   3   8   620029.35 3154.97   1
   3   8   6 9864.72 2025.30   1
  -3  -8  -621597.14 3156.74   1
  -3  -8  -615059.77 2022.48   1
   3   8   7 7490.23 1421.00   1
   3   8   7 2243.10  915.66   1
  -3  -8  -712682.33 1432.84   1
  -3  -8  -7 7940.18  914.51   1
   3   8   8  715.55  220.46   1
   3   8   8  313.37  121.11   1
  -3  -8  -8  835.49  119.69   1
   3   8   9  227.44  174.75   1
  -3  -8  -9   91.80   71.64   1
   3   8  10   11.46  305.17   1
   3   8  10   44.05   59.38   1
  -3  -8 -10   24.03   77.37   1
   3   8  11 2814.45  665.39   1
   3   8  11 2153.23  383.73   1
  -3  -8 -11 2849.23  386.95   1
   3   8  12 3122.38  784.53   1
   3   8  12 3156.45  492.82   1
  -3  -8 -12 3449.97  490.41   1
   3   8  13  602.03  304.48   1
   3   8  13  597.79  117.87   1
  -3  -8 -13  561.07  119.22   1
   3   8  14  165.72  394.95   1
   3   8  14  282.31  415.83   1
   3   8  14  171.08   84.76   1
  -3  -8 -14  246.65   94.45   1
   3   9   0  134.56  224.08   1
  -3  -9   0   23.88  168.91   1
   3   9   1 5187.95  789.62   1
  -3  -9  -1 2085.19  780.48   1
   3   9   2 3875.55  698.16   1
  -3  -9  -2 2375.69  686.00   1
   3   9   3  218.82  192.22   1
  -3  -9  -3  270.42  214.65   1
   3   9   4  653.33  215.22   1
   3   9   4  429.18   76.82   1
   3   9   4  367.54   79.20   1
  -3  -9  -4  521.55  209.34   1
  -3  -9  -4  412.97   78.26   1
   3   9   5   73.44  234.93   1
   3   9   5   90.02   42.65   1
   3   9   5  118.57   46.24   1
  -3  -9  -5   72.91  175.00   1
   3   9   6  177.44  195.58   1
   3   9   6   48.28   50.44   1
  -3  -9  -6   51.00  180.97   1
  -3  -9  -6  138.65   47.39   1
   3   9   7  272.69  249.70   1
  -3  -9  -7  356.37  197.70   1
  -3  -9  -7  213.21   63.96   1
   3   9   8  144.09  207.46   1
   3   9   8   24.72   56.58   1
  -3  -9  -8  245.73  210.43   1
  -3  -9  -8  123.54   66.03   1
   3   9   9  -50.62  206.32   1
   3   9   9   54.00   70.02   1
   3   9  10  283.18  305.41   1
  -3  -9 -10  117.06   74.54   1
   3   9  11  -34.60  262.63   1
   3   9  11    5.55   75.39   1
  -3  -9 -11   69.48   73.89   1
   3   9  12  367.66  364.10   1
   3   9  12  505.56  115.53   1
  -3  -9 -12  490.23  104.92   1
   3   9  13  658.08  354.10   1
   3   9  13  434.84  106.05   1
  -3  -9 -13  548.84  114.27   1
   3   9  14   14.79  508.12   1
   3   9  14    9.15   72.89   1
  -3  -9 -14    7.27   91.42   1
   3  10   0 2874.95  515.57   1
  -3 -10   0 1328.54  450.52   1
   3  10   1 2191.33  391.54   1
  -3 -10  -1  892.72  341.16   1
   3  10   2 2057.89  410.65   1
  -3 -10  -2 1186.98  372.45   1
   3  10   3 2208.86  447.31   1
  -3 -10  -3 1481.56  430.08   1
   3  10   4 1339.43  365.08   1
  -3 -10  -4 1369.32  362.53   1
   3  10   5  560.50  226.48   1
   3  10   5  389.94   74.98   1
   3  10   5  282.29   76.73   1
  -3 -10  -5  721.38  209.96   1
  -3 -10  -5  355.70   76.90   1
   3  10   6 1996.73  458.48   1
   3  10   6 1790.58  274.17   1
  -3 -10  -6 2299.77  449.54   1
  -3 -10  -6 1728.13  275.94   1
   3  10   7 5478.64  933.67   1
   3  10   7 5041.16  583.23   1
  -3 -10  -7 7442.28  931.49   1
  -3 -10  -7 5061.37  583.35   1
   3  10   8 3161.72  699.86   1
  -3 -10  -8 3953.79  698.06   1
  -3 -10  -8 2804.11  439.47   1
   3  10   9  180.09  226.37   1
   3  10   9  -10.30   72.07   1
  -3 -10  -9  191.16   73.86   1
   3  10  10 -152.99  285.01   1
  -3 -10 -10    4.33   60.19   1
   3  10  11  105.09  388.65   1
   3  10  11  113.28   83.72   1
  -3 -10 -11  212.62   87.81   1
   3  10  12 2100.39  643.91   1
   3  10  12 1689.05  317.34   1
  -3 -10 -12 2333.28  318.63   1
   3  10  13 3140.70  676.90   1
   3  10  13 1661.15  322.85   1
  -3 -10 -13 2428.85  327.57   1
   3  11   0  253.86  251.59   1
  -3 -11   0  398.44  209.07   1
   3  11   1  598.43  254.92   1
  -3 -11  -1  307.69  238.98   1
   3  11   2 3451.86  548.32   1
  -3 -11  -2 1386.73  525.07   1
   3  11   3 1444.88  333.64   1
  -3 -11  -3  756.47  290.86   1
   3  11   4 1126.34  342.49   1
  -3 -11  -4 1021.73  318.40   1
   3  11   5 4030.44  931.15   1
  -3 -11  -5 4019.37  919.44   1
   3  11   6  610.99  254.63   1
   3  11   6  380.39   72.26   1
   3  11   6  -29.92   69.18   1
  -3 -11  -6  331.02  211.64   1
  -3 -11  -6  374.20   72.86   1
   3  11   7 2533.24  452.58   1
   3  11   7 2063.48  253.95   1
  -3 -11  -7 2563.51  424.01   1
  -3 -11  -7 2172.72  257.33   1
   3  11   8 1747.78  485.13   1
   3  11   8 1610.23  248.51   1
  -3 -11  -8 3098.53  432.37   1
  -3 -11  -8 1370.20  248.97   1
   3  11   9  -72.64  271.28   1
   3  11   9   10.91   58.81   1
   3  11   9  -39.47   72.36   1
  -3 -11  -9  149.79  288.27   1
  -3 -11  -9  105.98   74.83   1
   3  11  10 2874.91  565.88   1
  -3 -11 -10 2749.49  256.82   1
   3  11  11 1963.40  596.84   1
  -3 -11 -11 1086.49  191.93   1
   3  11  12  396.60  472.49   1
   3  12   0 8129.48 1426.11   1
  -3 -12   0 5159.29 1389.92   1
   3  12   1 2946.88  629.45   1
  -3 -12  -1 1755.69  547.17   1
   3  12   2  423.60  297.34   1
  -3 -12  -2  223.38  265.39   1
   3  12   3  641.50  354.81   1
  -3 -12  -3  451.71  342.17   1
   3  12   4 1852.85  560.63   1
  -3 -12  -4 2060.00  525.31   1
   3  12   5 8669.25 1874.38   1
  -3 -12  -5 8116.30 1866.26   1
   3  12   6 4396.31  630.85   1
   3  12   6 1776.56  335.40   1
  -3 -12  -6 3977.61  572.29   1
   3  12   7   90.51  290.58   1
   3  12   7   80.89   64.42   1
   3  12   7   16.21   71.73   1
  -3 -12  -7   55.88  265.64   1
  -3 -12  -7   83.53   66.40   1
   3  12   8   11.37  305.41   1
   3  12   8   37.47   79.01   1
   3  12   8   17.70   81.49   1
  -3 -12  -8  350.91  280.56   1
  -3 -12  -8  106.05   72.24   1
   3  12   9  295.67  311.90   1
   3  12   9   96.40   79.59   1
   3  12   9   45.02   90.74   1
  -3 -12  -9  471.56  309.05   1
  -3 -12  -9  177.07   84.88   1
   3  12  10 2587.31  530.14   1
   3  12  10 1345.38  169.12   1
  -3 -12 -10 1144.54  168.27   1
  -3 -13   0 1023.70  492.13   1
   3  13   1  429.85  367.65   1
  -3 -13  -1  315.50  323.72   1
   3  13   2  381.62  373.19   1
  -3 -13  -2  436.36  318.84   1
   3  13   3 1387.34  407.94   1
  -3 -13  -3  491.21  400.57   1
   3  13   4  672.16  353.81   1
  -3 -13  -4  199.78  302.95   1
   3  13   5  413.05  358.01   1
  -3 -13  -5  584.46  303.55   1
   3  13   6   38.33  338.10   1
  -3 -13  -6  342.96  286.57   1
   3  13   7  -40.25  342.75   1
   3  13   7   53.38   76.60   1
  -3 -13  -7 -166.09  288.31   1
  -3 -13  -7   64.91   93.98   1
   4  -9   0 4464.72 1143.58   1
   4  -9   0 4636.63  724.96   1
  -4   9   0 5419.03 1171.12   1
  -4   9   0 4895.54  718.70   1
  -4   9   0 5138.91  719.79   1
   4  -9   1 4359.23 1013.00   1
   4  -9   1 4323.93  635.98   1
  -4   9  -1 5593.98 1084.85   1
  -4   9  -1 4414.06  629.07   1
  -4   9  -1 4012.02  632.68   1
   4  -9   2 2437.67  603.79   1
  -4   9  -2 3270.62  665.04   1
  -4   9  -2 1898.31  342.87   1
  -4   9  -2 2556.55  349.62   1
   4  -9   3 2329.71  609.81   1
  -4   9  -3 3071.81  667.41   1
  -4   9  -3 2070.39  349.21   1
  -4   9  -3 2428.58  353.01   1
   4  -8   0  229.50  288.57   1
   4  -8   0  177.08   86.27   1
  -4   8   0  163.34  300.33   1
  -4   8   0  107.33   61.21   1
  -4   8   0  145.85   80.58   1
   4  -8   1  181.07  298.99   1
   4  -8   1  109.24   80.75   1
  -4   8  -1  399.29  344.63   1
  -4   8  -1  149.83   62.40   1
  -4   8  -1  143.09   68.78   1
   4  -8   2  262.17  312.39   1
  -4   8  -2  745.49  389.47   1
  -4   8  -2  395.22   88.09   1
  -4   8  -2  413.80   95.43   1
   4  -8   3 3897.20  790.93   1
   4  -8   3 3312.81  480.54   1
  -4   8  -3 4288.86  819.59   1
  -4   8  -3 3009.75  474.40   1
  -4   8  -3 3193.84  480.75   1
   4  -8   4 1967.34  550.96   1
   4  -8   4 1740.93  312.84   1
  -4   8  -4 2937.94  598.65   1
  -4   8  -4 2212.26  309.88   1
  -4   8  -4 1951.09  310.19   1
   4  -8   5  -23.10  307.49   1
   4  -8   5   61.86   88.65   1
  -4   8  -5  245.49  390.01   1
  -4   8  -5   81.88   64.22   1
  -4   8  -5   62.42   76.80   1
   4  -8   6  820.51  418.49   1
   4  -8   6  696.11  145.05   1
  -4   8  -6  712.37  425.88   1
  -4   8  -6  572.72  127.38   1
  -4   8  -6  721.79  135.38   1
   4  -7   0  321.53  340.46   1
   4  -7   0  435.77  103.48   1
  -4   7   0  494.92  281.90   1
  -4   7   0  482.19   92.32   1
  -4   7   0  542.40   97.86   1
   4  -7   1 1261.06  357.90   1
   4  -7   1  901.00  170.44   1
  -4   7  -1 1265.45  348.95   1
  -4   7  -1  959.55  162.41   1
  -4   7  -1 1101.55  166.59   1
   4  -7   2  592.71  297.32   1
   4  -7   2  404.64   87.61   1
   4  -7   2  313.02   89.98   1
  -4   7  -2  433.12  286.20   1
  -4   7  -2  401.43   78.44   1
  -4   7  -2  377.65   81.79   1
   4  -7   3 8076.55 1475.82   1
   4  -7   3 6990.52  935.83   1
  -4   7  -3 7733.70 1468.82   1
  -4   7  -3 5809.39  931.10   1
  -4   7  -3 6432.93  933.86   1
   4  -7   413093.06 2887.46   1
   4  -7   412939.65 1848.56   1
  -4   7  -413773.19 2884.52   1
  -4   7  -412397.68 1845.23   1
  -4   7  -413279.66 1847.53   1
   4  -7   5 2689.01  732.25   1
   4  -7   5 2957.72  450.49   1
  -4   7  -5 3034.61  730.85   1
  -4   7  -5 2942.24  445.76   1
  -4   7  -5 3149.25  448.61   1
   4  -7   6  290.78  416.06   1
   4  -7   6  135.60   80.96   1
  -4   7  -6  182.63  358.05   1
  -4   7  -6  131.03   60.68   1
  -4   7  -6  131.32   77.20   1
   4  -7   7  172.03  328.51   1
   4  -7   7  191.60   82.89   1
  -4   7  -7  200.47  363.79   1
  -4   7  -7  129.44   73.75   1
  -4   7  -7  101.83   79.62   1
   4  -7   8 1300.84  464.62   1
   4  -7   8 1299.23  233.65   1
  -4   7  -8 1077.24  512.15   1
  -4   7  -8 1411.74  226.74   1
  -4   7  -8 1545.92  230.28   1
   4  -6   015487.16 3569.00   1
   4  -6   015498.88 2289.49   1
  -4   6   012093.73 3563.77   1
  -4   6   016491.23 2285.82   1
  -4   6   016351.03 2285.65   1
   4  -6   1  834.97  346.34   1
   4  -6   1  917.88  166.29   1
   4  -6   1 1031.26  166.39   1
  -4   6  -1 1269.93  341.00   1
  -4   6  -1 1041.67  158.67   1
  -4   6  -1  945.20  162.80   1
   4  -6   2 3332.96  766.45   1
   4  -6   2 3126.64  470.79   1
   4  -6   2 3215.45  473.66   1
  -4   6  -2 3669.37  756.84   1
  -4   6  -2 3140.58  468.21   1
  -4   6  -2 3219.91  469.19   1
   4  -6   313350.60 2691.35   1
   4  -6   311816.02 1721.88   1
  -4   6  -312581.00 2690.83   1
  -4   6  -312066.79 1719.41   1
  -4   6  -311979.16 1720.20   1
   4  -6   427643.57 5833.38   1
   4  -6   425180.11 3733.82   1
  -4   6  -428113.61 5830.62   1
  -4   6  -426739.94 3731.99   1
  -4   6  -426210.53 3733.03   1
   4  -6   514247.00 3031.94   1
   4  -6   514147.14 1940.68   1
  -4   6  -514974.55 3028.48   1
  -4   6  -514846.81 1938.94   1
  -4   6  -511317.58 1938.81   1
   4  -6   6 4620.25 1183.32   1
   4  -6   6 5076.20  751.66   1
  -4   6  -6 5775.32 1180.41   1
  -4   6  -6 5035.28  749.43   1
  -4   6  -6 5321.78  750.78   1
   4  -6   7 1744.61  635.37   1
   4  -6   7 2494.15  335.97   1
  -4   6  -7 2797.13  625.80   1
  -4   6  -7 2322.14  330.49   1
  -4   6  -7 1703.34  331.68   1
   4  -6   8 4720.87 1213.56   1
   4  -6   8 5069.48  760.20   1
  -4   6  -8 6289.97 1235.55   1
  -4   6  -8 5231.16  756.43   1
  -4   6  -8 5174.44  759.65   1
   4  -6   9 4558.08 1238.20   1
   4  -6   9 5317.18  771.98   1
  -4   6  -9 4546.94 1253.16   1
  -4   6  -9 5175.51  770.30   1
  -4   6  -9 5509.57  774.06   1
   4  -6  10 4038.74 1202.04   1
  -4   6 -10 3187.45 1183.52   1
  -4   6 -10 5229.49  732.64   1
  -4   6 -10 5047.38  731.19   1
   4  -5   010196.84 2121.91   1
   4  -5   0 9079.51 1354.51   1
   4  -5   0 9140.60 1357.35   1
  -4   5   0 6298.93 2107.41   1
  -4   5   010068.37 1354.29   1
  -4   5   0 9730.56 1354.37   1
   4  -5   1 5195.65 1283.41   1
   4  -5   1 5436.80  811.01   1
   4  -5   1 5690.78  814.66   1
  -4   5  -1 5037.36 1267.99   1
  -4   5  -1 5731.08  810.16   1
  -4   5  -1 5680.90  810.72   1
   4  -5   2 3721.50  774.75   1
   4  -5   2 3154.57  467.32   1
   4  -5   2 3235.37  469.67   1
  -4   5  -2 3163.11  742.35   1
  -4   5  -2 3057.03  464.74   1
  -4   5  -2 3218.90  465.99   1
   4  -5   3 6297.14 1275.80   1
   4  -5   3 5535.73  805.35   1
   4  -5   3 5508.98  806.95   1
  -4   5  -3 5314.19 1258.17   1
  -4   5  -3 5382.70  802.91   1
  -4   5  -3 5794.31  804.15   1
   4  -5   4 6337.80 1411.61   1
   4  -5   4 6188.28  894.51   1
  -4   5  -4 6487.65 1398.25   1
  -4   5  -4 5866.27  892.30   1
  -4   5  -4 6513.55  894.48   1
   4  -5   5 6702.40 1472.26   1
   4  -5   5 6384.30  921.98   1
  -4   5  -5 7001.07 1442.39   1
  -4   5  -5 6317.68  920.16   1
  -4   5  -5 6327.65  921.47   1
   4  -5   6 6522.09 1435.54   1
   4  -5   6 5744.60  896.17   1
  -4   5  -6 6769.78 1399.39   1
  -4   5  -6 6268.71  895.29   1
  -4   5  -6 6446.57  896.32   1
   4  -5   7 4388.31 1055.88   1
   4  -5   7 3994.20  642.51   1
  -4   5  -7 4865.86 1011.37   1
  -4   5  -7 4714.33  641.45   1
  -4   5  -7 4370.95  643.05   1
   4  -5   8 4236.36  893.16   1
   4  -5   8 3330.21  532.37   1
  -4   5  -8 5383.04  898.06   1
  -4   5  -8 3833.26  533.05   1
  -4   5  -8 3362.08  533.26   1
   4  -5   9 1564.66  472.22   1
   4  -5   9 1324.46  227.60   1
  -4   5  -9 1363.87  467.93   1
  -4   5  -9 1505.47  233.36   1
  -4   5  -9 1431.32  230.98   1
   4  -5  10  408.69  438.21   1
   4  -5  10  238.51   88.98   1
  -4   5 -10  140.87  356.60   1
  -4   5 -10  283.61   99.82   1
  -4   5 -10  278.45  102.83   1
   4  -5  11  832.69  532.48   1
   4  -5  11 1133.16  198.72   1
  -4   5 -11  802.24  582.27   1
  -4   5 -11 1126.95  205.84   1
  -4   5 -11 1361.02  202.44   1
   4  -4   0  -39.62  277.93   1
   4  -4   0  302.03   69.02   1
   4  -4   0  210.52   69.37   1
  -4   4   0  266.62  224.19   1
  -4   4   0  341.68   65.05   1
  -4   4   0  247.95   64.46   1
   4  -4   1 1854.16  612.51   1
   4  -4   1 2404.76  363.99   1
   4  -4   1 2428.14  366.75   1
  -4   4  -1 1702.17  582.07   1
  -4   4  -1 2633.95  362.33   1
  -4   4  -1 2434.39  362.56   1
   4  -4   2 3633.68  881.81   1
   4  -4   2 3764.69  543.93   1
   4  -4   2 3784.98  546.55   1
  -4   4  -2 3396.08  855.69   1
  -4   4  -2 3764.20  542.40   1
  -4   4  -2 3637.17  542.74   1
   4  -4   3 4414.65 1001.18   1
   4  -4   3 4172.45  623.90   1
   4  -4   3 4345.27  626.59   1
  -4   4  -3 3295.61  975.05   1
  -4   4  -3 4172.87  622.17   1
  -4   4  -3 4589.14  623.30   1
   4  -4   4  303.30  314.02   1
   4  -4   4  174.15   61.69   1
  -4   4  -4  284.75  229.48   1
  -4   4  -4  203.79   55.57   1
  -4   4  -4  226.53   57.30   1
   4  -4   5 1358.52  388.87   1
   4  -4   5 1006.98  174.08   1
  -4   4  -5 1179.15  311.96   1
  -4   4  -5 1120.25  169.25   1
  -4   4  -5 1024.23  171.34   1
   4  -4   6   10.05  298.09   1
   4  -4   6  199.72   60.04   1
  -4   4  -6  323.69  216.53   1
  -4   4  -6  178.39   57.06   1
  -4   4  -6  209.80   61.74   1
   4  -4   7 6763.44 1586.38   1
   4  -4   7 7012.02 1010.64   1
  -4   4  -7 8407.22 1576.53   1
  -4   4  -7 6911.35 1009.38   1
  -4   4  -7 6901.52 1011.87   1
   4  -4   8 5120.49 1372.65   1
   4  -4   8 5645.84  865.74   1
  -4   4  -8 7509.04 1388.15   1
  -4   4  -8 5723.19  864.83   1
  -4   4  -8 6522.64  869.06   1
   4  -4   9  653.06  371.89   1
   4  -4   9  453.09  100.16   1
  -4   4  -9  643.80  324.56   1
  -4   4  -9  519.70  100.89   1
  -4   4  -9  521.52  104.50   1
   4  -4  10 1166.62  510.51   1
   4  -4  10  774.49  143.12   1
  -4   4 -10  959.32  448.11   1
  -4   4 -10  860.83  148.73   1
   4  -4  11  635.14  467.48   1
   4  -4  11  595.04  119.01   1
  -4   4 -11  157.94  402.30   1
  -4   4 -11  566.56  120.76   1
  -4   4 -11  605.14  123.69   1
   4  -4  12  676.14  522.08   1
   4  -4  12 1060.60  168.82   1
  -4   4 -12   67.03  546.86   1
  -4   4 -12  916.68  170.70   1
  -4   4 -12 1042.65  175.12   1
   4  -3   0  492.81  321.81   1
   4  -3   0  649.15  113.23   1
   4  -3   0  605.51  115.72   1
  -4   3   0  628.51  291.06   1
  -4   3   0  705.53  111.75   1
  -4   3   0  629.27  111.02   1
   4  -3   1 3035.42  855.83   1
   4  -3   1 3398.24  538.21   1
   4  -3   1 3816.24  540.58   1
  -4   3  -1 2387.55  841.58   1
  -4   3  -1 3897.45  536.88   1
  -4   3  -1 3860.52  537.35   1
   4  -3   225524.31 5897.40   1
   4  -3   225751.21 3777.40   1
   4  -3   228249.26 3780.67   1
  -4   3  -221140.15 5894.01   1
  -4   3  -226677.34 3777.15   1
  -4   3  -226587.45 3777.52   1
   4  -3   325818.54 6255.67   1
   4  -3   328154.23 4007.62   1
   4  -3   329134.22 4010.16   1
  -4   3  -324197.10 6253.10   1
  -4   3  -328111.92 4006.87   1
  -4   3  -328091.14 4007.35   1
   4  -3   4 5461.62 1206.68   1
   4  -3   4 5347.86  769.21   1
  -4   3  -4 5209.98 1194.21   1
  -4   3  -4 5325.81  767.14   1
  -4   3  -4 5251.37  769.49   1
   4  -3   5  421.61  275.93   1
   4  -3   5  462.89   91.10   1
  -4   3  -5  604.58  237.20   1
  -4   3  -5  481.84   90.11   1
  -4   3  -5  483.86   92.56   1
   4  -3   6  222.47  275.89   1
   4  -3   6  328.54   72.56   1
  -4   3  -6  334.35  217.56   1
  -4   3  -6  349.13   70.84   1
  -4   3  -6  270.41   74.56   1
   4  -3   712403.15 3042.91   1
   4  -3   713701.77 1945.32   1
  -4   3  -715567.28 3030.11   1
  -4   3  -713137.32 1943.85   1
  -4   3  -713834.31 1947.79   1
   4  -3   826077.99 5413.02   1
   4  -3   824422.87 3463.63   1
  -4   3  -825553.70 5402.58   1
  -4   3  -824162.97 3463.07   1
  -4   3  -823941.55 3466.09   1
   4  -3   9 9750.12 1779.22   1
   4  -3   9 7520.16 1119.03   1
  -4   3  -910678.66 1756.85   1
  -4   3  -9 7884.45 1118.72   1
  -4   3  -9 7209.43 1121.53   1
   4  -3  10  310.81  358.09   1
   4  -3  10  507.14   93.55   1
  -4   3 -10  624.95  339.77   1
  -4   3 -10  457.81   97.89   1
  -4   3 -10  413.39   96.15   1
   4  -3  11  227.63  456.99   1
   4  -3  11   80.33   52.47   1
  -4   3 -11   74.18  341.77   1
  -4   3 -11  145.35   66.17   1
  -4   3 -11   82.38   57.01   1
   4  -3  12 1750.00  712.13   1
   4  -3  12 2259.63  334.46   1
  -4   3 -12 1602.46  676.34   1
  -4   3 -12 2155.06  337.57   1
  -4   3 -12 2328.59  341.40   1
   4  -3  13 3233.83 1311.36   1
   4  -3  13 5684.07  797.00   1
  -4   3 -13 5068.71  797.01   1
  -4   3 -13 5946.19  803.30   1
   4  -2   0 1825.72  486.60   1
   4  -2   0 1984.63  302.72   1
   4  -2   0 1770.43  305.17   1
  -4   2   0 1955.65  474.54   1
  -4   2   0 2177.73  302.59   1
  -4   2   0 2154.62  303.13   1
   4  -2   1 6962.94 1547.13   1
   4  -2   1 6906.94  991.58   1
   4  -2   1 6296.63  994.16   1
  -4   2  -1 5965.61 1537.23   1
  -4   2  -1 7260.94  991.99   1
  -4   2  -1 7090.78  991.54   1
   4  -2   241158.38 9009.46   1
   4  -2   241348.64 5766.99   1
   4  -2   240198.69 5769.41   1
  -4   2  -233100.44 9005.38   1
  -4   2  -240500.65 5766.58   1
  -4   2  -241037.94 5767.28   1
   4  -2   375187.9717267.09   1
   4  -2   374981.0511043.67   1
   4  -2   383221.2311047.24   1
  -4   2  -365369.8417265.52   1
  -4   2  -378042.3811043.95   1
  -4   2  -377849.5111044.19   1
   4  -2   431959.57 6935.38   1
   4  -2   430224.98 4442.03   1
  -4   2  -429531.87 6933.09   1
  -4   2  -433115.82 4441.46   1
  -4   2  -430140.12 4443.07   1
   4  -2   5 7639.50 1601.20   1
   4  -2   5 6588.94 1023.63   1
  -4   2  -5 6489.19 1587.33   1
  -4   2  -5 7446.01 1022.73   1
  -4   2  -5 7312.52 1025.87   1
   4  -2   6 4421.54  893.25   1
   4  -2   6 3891.87  558.94   1
  -4   2  -6 4154.57  871.89   1
  -4   2  -6 3693.60  558.90   1
  -4   2  -6 3783.92  561.92   1
   4  -2   712934.83 2879.35   1
   4  -2   713364.26 1846.87   1
  -4   2  -713326.54 2872.48   1
  -4   2  -712446.14 1846.40   1
  -4   2  -712820.39 1849.09   1
   4  -2   823544.24 6226.22   1
   4  -2   828358.14 3989.38   1
  -4   2  -831260.41 6226.21   1
  -4   2  -828359.99 3989.50   1
  -4   2  -826987.76 3992.27   1
   4  -2   921898.12 4545.86   1
   4  -2   919998.93 2909.11   1
  -4   2  -927513.19 4545.75   1
  -4   2  -920904.24 2909.56   1
  -4   2  -918816.95 2912.19   1
   4  -2  10 9150.51 1626.39   1
   4  -2  10 6437.41 1001.32   1
  -4   2 -1010501.45 1583.20   1
  -4   2 -10 7294.66 1004.31   1
  -4   2 -10 6364.29 1004.92   1
   4  -2  11 4164.71  875.21   1
   4  -2  11 3002.94  438.73   1
  -4   2 -11 4191.30  810.27   1
  -4   2 -11 2900.27  440.83   1
  -4   2 -11 2664.12  442.00   1
   4  -2  12 3386.79  875.54   1
   4  -2  12 3314.61  487.12   1
  -4   2 -12 3212.10  489.51   1
  -4   2 -12 3379.08  491.60   1
   4  -2  13 2927.74 1149.07   1
   4  -2  13 4295.27  674.29   1
  -4   2 -13 4738.17  676.77   1
  -4   2 -13 5063.65  680.91   1
   4  -2  14 3704.02  562.65   1
  -4   2 -14 3779.17  561.59   1
  -4   2 -14 4056.20  570.70   1
   4  -1   0 1578.71  474.80   1
   4  -1   0 1937.14  300.14   1
   4  -1   0 1941.44  303.22   1
  -4   1   0 2118.61  470.43   1
  -4   1   0 2018.11  300.47   1
  -4   1   0 2192.52  300.58   1
   4  -1   1 1554.67  380.31   1
   4  -1   1 1455.45  218.63   1
   4  -1   1 1353.98  222.49   1
  -4   1  -1 1248.81  349.88   1
  -4   1  -1 1382.47  218.98   1
  -4   1  -1 1557.33  219.53   1
   4  -1   2 8847.78 2137.08   1
   4  -1   2 9302.00 1375.07   1
   4  -1   210049.66 1378.21   1
  -4   1  -2 7678.87 2133.27   1
  -4   1  -2 9690.72 1375.27   1
  -4   1  -2 9806.10 1375.71   1
   4  -1   322527.20 5387.07   1
   4  -1   323619.33 3454.65   1
   4  -1   325557.27 3456.62   1
  -4   1  -319473.10 5385.42   1
  -4   1  -324880.82 3454.11   1
  -4   1  -323929.59 3455.61   1
   4  -1   413689.92 3001.70   1
   4  -1   413151.24 1928.54   1
  -4   1  -411104.61 2998.59   1
  -4   1  -414519.62 1929.16   1
  -4   1  -413064.90 1930.79   1
   4  -1   5 5669.69 1349.18   1
   4  -1   5 6168.21  866.31   1
  -4   1  -5 4806.80 1337.66   1
  -4   1  -5 5825.34  866.33   1
  -4   1  -5 6306.07  868.95   1
   4  -1   6 3209.66  810.90   1
   4  -1   6 3448.44  507.37   1
  -4   1  -6 3518.61  790.94   1
  -4   1  -6 3594.49  506.95   1
  -4   1  -6 3335.17  509.76   1
   4  -1   7 8333.96 1845.90   1
   4  -1   7 8367.66 1187.23   1
  -4   1  -7 8190.47 1841.03   1
  -4   1  -7 7972.56 1187.61   1
  -4   1  -7 8481.80 1190.31   1
   4  -1   8 2006.37  487.53   1
   4  -1   8 1922.11  295.78   1
  -4   1  -8 1960.04  462.72   1
  -4   1  -8 2113.02  297.63   1
  -4   1  -8 1818.17  298.50   1
   4  -1   9 3838.45  839.55   1
   4  -1   9 3562.15  513.07   1
  -4   1  -9 3384.79  793.13   1
  -4   1  -9 3681.28  514.55   1
  -4   1  -9 3153.32  515.57   1
   4  -1  10 1977.22  543.74   1
   4  -1  10 1710.78  281.43   1
  -4   1 -10 2505.89  569.74   1
  -4   1 -10 2031.89  285.82   1
  -4   1 -10 1693.95  284.93   1
   4  -1  11 4344.50  937.20   1
   4  -1  11 3744.45  553.72   1
  -4   1 -11 3839.82  556.79   1
  -4   1 -11 3692.58  557.50   1
   4  -1  12 3741.45  968.78   1
   4  -1  12 3696.67  548.37   1
  -4   1 -12 3721.74  549.89   1
  -4   1 -12 3790.48  553.20   1
   4  -1  13 1034.64  599.78   1
   4  -1  13  820.94  147.78   1
  -4   1 -13  888.12  154.24   1
  -4   1 -13  910.60  157.11   1
   4  -1  14   79.01  447.72   1
   4  -1  14  102.71   57.43   1
  -4   1 -14  106.84   58.97   1
  -4   1 -14  127.80   71.91   1
   4   0   0 1285.35  407.87   1
   4   0   0 1660.73  259.47   1
   4   0   0 1780.36  262.54   1
  -4   0   0 2000.55  397.17   1
  -4   0   0 1908.45  260.16   1
  -4   0   0 1627.78  259.35   1
   4   0   1 1892.04  462.53   1
   4   0   1 1944.93  289.50   1
   4   0   1 1880.71  292.32   1
  -4   0  -1 1897.01  289.84   1
  -4   0  -1 2046.38  290.53   1
   4   0   2 3319.31  909.00   1
   4   0   2 4040.45  586.35   1
   4   0   2 3940.51  588.68   1
  -4   0  -2 3165.68  902.83   1
  -4   0  -2 3831.42  586.86   1
  -4   0  -2 4566.65  587.56   1
   4   0   3  104.54  177.42   1
   4   0   3  279.79   57.44   1
   4   0   3  307.89   61.81   1
  -4   0  -3  201.73  147.27   1
  -4   0  -3  271.20   58.89   1
  -4   0  -3  298.22   61.44   1
   4   0   4  321.88  174.53   1
   4   0   4  250.32   52.33   1
  -4   0  -4  124.08  143.12   1
  -4   0  -4  234.04   58.47   1
  -4   0  -4  246.09   58.02   1
   4   0   5 2350.74  549.37   1
   4   0   5 2229.77  349.44   1
  -4   0  -5 2114.63  538.65   1
  -4   0  -5 2520.26  349.86   1
  -4   0  -5 2364.03  352.47   1
   4   0   6 8016.23 2019.25   1
   4   0   6 9364.91 1302.04   1
  -4   0  -6 8011.33 2017.76   1
  -4   0  -6 9157.01 1302.76   1
  -4   0  -6 8987.63 1304.67   1
   4   0   7 4489.27 1198.68   1
   4   0   7 5705.35  773.51   1
  -4   0  -7 5161.38 1194.48   1
  -4   0  -7 5291.32  775.07   1
  -4   0  -7 5120.47  775.75   1
   4   0   8  380.11  221.62   1
   4   0   8  427.58   80.18   1
  -4   0  -8  395.09  204.68   1
  -4   0  -8  377.97   84.77   1
  -4   0  -8  353.16   81.99   1
   4   0   9 1834.34  458.07   1
   4   0   9 1656.92  256.32   1
  -4   0  -9 1780.88  416.78   1
  -4   0  -9 1848.97  260.81   1
  -4   0  -9 1474.28  258.60   1
   4   0  10  444.69  292.16   1
   4   0  10  248.44   68.08   1
  -4   0 -10  310.72   75.46   1
  -4   0 -10  271.28   71.09   1
   4   0  11 5705.64 1205.04   1
   4   0  11 5209.74  766.56   1
  -4   0 -11 5329.02  770.66   1
   4   0  12 4687.52 1205.20   1
   4   0  12 5258.98  745.25   1
  -4   0 -12 5021.61  746.93   1
   4   0  13 1296.27  569.81   1
   4   0  13 1696.64  250.44   1
  -4   0 -13 1583.41  249.94   1
   4   0  14   89.52  393.87   1
   4   0  14   37.11  713.85   1
   4   0  14  496.63   92.49   1
  -4   0 -14  458.19  101.23   1
   4   0  15  -51.59  451.69   1
   4   0  15  338.20   81.36   1
  -4   0 -15  416.84   84.96   1
   4   1   012505.80 3015.10   1
   4   1   014218.85 1938.57   1
   4   1   013249.67 1940.55   1
  -4  -1   013927.36 3014.99   1
  -4  -1   013428.07 1938.57   1
  -4  -1   013421.46 1938.00   1
   4   1   128929.01 7082.03   1
   4   1   132462.76 4538.15   1
   4   1   135453.97 4541.80   1
  -4  -1  -130743.48 7082.58   1
  -4  -1  -131470.61 4538.21   1
  -4  -1  -129658.55 4538.55   1
   4   1   243957.9510130.73   1
   4   1   242631.02 6484.81   1
   4   1   247917.89 6488.51   1
  -4  -1  -246018.9610130.98   1
  -4  -1  -246207.36 6486.44   1
  -4  -1  -247000.73 6487.19   1
   4   1   3 3746.11  891.64   1
   4   1   3 3606.84  575.76   1
  -4  -1  -3 3557.40  888.77   1
  -4  -1  -3 4306.00  577.72   1
  -4  -1  -3 4182.07  578.89   1
   4   1   4  202.00  157.34   1
   4   1   4  213.60   51.55   1
  -4  -1  -4  316.47  139.76   1
  -4  -1  -4  263.80   55.39   1
  -4  -1  -4  252.13   56.27   1
   4   1   5 1390.80  347.23   1
   4   1   5 1479.02  217.11   1
  -4  -1  -5 1183.68  347.78   1
  -4  -1  -5 1391.45  219.23   1
  -4  -1  -5 1453.60  220.69   1
   4   1   633411.82 8036.70   1
   4   1   637677.34 5148.11   1
  -4  -1  -630926.42 8035.38   1
  -4  -1  -635484.50 5149.20   1
  -4  -1  -636719.44 5150.58   1
   4   1   740108.11 9118.78   1
   4   1   743645.90 5840.31   1
  -4  -1  -740002.75 5840.63   1
  -4  -1  -739253.86 5842.29   1
   4   1   815412.29 3636.89   1
   4   1   816452.32 2337.38   1
  -4  -1  -816438.22 2339.66   1
   4   1   9  198.08  238.18   1
   4   1   9  225.53   60.44   1
  -4  -1  -9  224.29   73.86   1
   4   1  10  469.18  242.52   1
   4   1  10  346.41   78.68   1
  -4  -1 -10  407.95   84.01   1
   4   1  11 7669.07 1443.68   1
   4   1  11 5678.23  918.61   1
  -4  -1 -11 7017.00  922.38   1
   4   1  1218589.08 4187.19   1
   4   1  1218913.66 2680.86   1
  -4  -1 -1218661.61 2681.31   1
   4   1  13 6023.48 2037.87   1
   4   1  13 7656.99 2045.43   1
   4   1  13 9738.82 1302.30   1
  -4  -1 -13 8926.71 1301.21   1
   4   1  14 1328.18  476.27   1
   4   1  14 1519.21  225.15   1
  -4  -1 -14 1363.98  225.48   1
   4   1  15  188.12  450.68   1
   4   1  15   51.98  676.94   1
   4   1  15  161.48   64.33   1
  -4  -1 -15  242.23   73.41   1
   4   2   010321.89 2372.56   1
   4   2   010367.18 1526.90   1
   4   2   010708.29 1530.65   1
  -4  -2   010656.29 1528.24   1
  -4  -2   011067.13 1527.48   1
   4   2   168347.3716946.53   1
   4   2   175946.6710839.31   1
   4   2   174981.7610843.92   1
  -4  -2  -179057.1410841.70   1
  -4  -2  -176487.6010841.17   1
   4   2   281664.5919234.87   1
   4   2   290238.2312301.41   1
   4   2   284064.5512305.05   1
  -4  -2  -286471.3112303.23   1
  -4  -2  -285362.2512302.42   1
   4   2   332385.90 4792.97   1
  -4  -2  -334394.34 4794.11   1
  -4  -2  -334633.11 4795.78   1
   4   2   4 3765.61  890.02   1
   4   2   4 4022.62  577.71   1
  -4  -2  -4 3944.40  579.39   1
  -4  -2  -4 3996.54  580.65   1
   4   2   5 4192.49 1076.93   1
   4   2   5 4896.54  699.00   1
  -4  -2  -5 4846.18  701.24   1
  -4  -2  -5 4851.72  700.93   1
   4   2   632182.60 7194.39   1
   4   2   632427.74 4609.82   1
  -4  -2  -632502.22 4612.40   1
  -4  -2  -632306.59 4611.88   1
   4   2   747757.6510947.88   1
   4   2   749862.23 7008.30   1
  -4  -2  -748890.27 7010.61   1
   4   2   829564.85 6734.54   1
   4   2   829974.53 4316.36   1
  -4  -2  -830916.00 4319.81   1
   4   2   9 4302.45  960.40   1
   4   2   9 4341.79  619.49   1
  -4  -2  -9 4104.90  622.94   1
   4   2  10 3817.12  698.03   1
   4   2  10 2745.79  436.26   1
  -4  -2 -10 3056.62  440.56   1
   4   2  11 8382.71 1448.34   1
   4   2  11 5885.76  924.70   1
  -4  -2 -11 6623.00  925.99   1
   4   2  1212069.94 2719.88   1
   4   2  1213858.08 2729.54   1
   4   2  1212372.52 1743.77   1
  -4  -2 -1211777.72 1742.85   1
   4   2  13 6166.75 1809.55   1
   4   2  13 7789.64 1818.28   1
   4   2  13 8373.60 1158.12   1
  -4  -2 -13 8047.49 1157.62   1
   4   2  14 3857.25 1195.73   1
   4   2  14 3572.38 1224.09   1
   4   2  14 5239.60  764.03   1
  -4  -2 -14 5565.63  763.74   1
   4   2  15  754.91  540.95   1
   4   2  15  721.31  726.57   1
   4   2  15 2061.12  303.54   1
  -4  -2 -15 2195.21  305.77   1
   4   3   0  409.66  154.43   1
   4   3   0  467.76   76.98   1
   4   3   0  432.70   79.81   1
  -4  -3   0  440.54   77.75   1
  -4  -3   0  416.08   77.20   1
   4   3   115045.93 3821.10   1
   4   3   118135.22 2453.74   1
   4   3   117945.21 2457.00   1
  -4  -3  -116439.11 2456.32   1
  -4  -3  -116607.42 2454.30   1
   4   3   232535.97 7534.87   1
  -4  -3  -233886.01 4828.88   1
  -4  -3  -234223.09 4827.71   1
   4   3   316510.51 3414.60   1
   4   3   315167.05 2194.81   1
  -4  -3  -316357.39 2197.32   1
  -4  -3  -314421.29 2197.53   1
   4   3   4 2523.06  511.87   1
   4   3   4 2134.68  329.94   1
  -4  -3  -4 2276.49  333.95   1
  -4  -3  -4 2272.35  332.99   1
   4   3   5  958.04  228.82   1
   4   3   5  800.70  136.08   1
  -4  -3  -5  884.66  140.00   1
  -4  -3  -5  857.72  139.20   1
   4   3   6 2501.74  496.82   1
   4   3   6 2132.80  320.82   1
  -4  -3  -6 2106.71  324.36   1
   4   3   7 8561.47 1839.51   1
   4   3   7 8444.39 1188.29   1
  -4  -3  -7 7949.09 1191.58   1
   4   3   8 4757.31 1162.80   1
   4   3   8 5343.53  754.78   1
  -4  -3  -8 5112.41  760.04   1
   4   3   9 2322.42  550.21   1
   4   3   9 2289.70  354.65   1
  -4  -3  -9 2485.45  358.83   1
   4   3  10 1973.15  575.44   1
   4   3  10 3096.28  577.67   1
   4   3  10 2216.54  367.09   1
  -4  -3 -10 2716.37  369.88   1
   4   3  11 1569.59  420.93   1
   4   3  11 1846.72  416.35   1
   4   3  11 1391.35  234.71   1
  -4  -3 -11 1566.62  234.09   1
   4   3  12 1064.15  312.68   1
   4   3  12  948.29  323.49   1
   4   3  12  911.32  156.02   1
  -4  -3 -12  889.51  154.50   1
   4   3  13  333.61  257.14   1
   4   3  13  515.02  369.43   1
   4   3  13  430.69   86.82   1
  -4  -3 -13  391.47   88.74   1
   4   3  14  109.62  224.15   1
   4   3  14   50.36  383.49   1
   4   3  14  343.87   79.80   1
  -4  -3 -14  358.27   86.62   1
   4   3  15 1011.65  506.97   1
   4   3  15  692.57  567.91   1
   4   3  15 1632.19  244.64   1
  -4  -3 -15 1638.16  246.13   1
   4   4   0  237.04  106.78   1
   4   4   0  310.73  144.47   1
   4   4   0  219.74   53.17   1
  -4  -4   0  274.02   50.84   1
   4   4   1  941.35  203.83   1
   4   4   1  795.25  220.61   1
   4   4   1  833.74  127.02   1
  -4  -4  -1  786.30  129.56   1
  -4  -4  -1  772.81  127.46   1
   4   4   2 1543.70  320.32   1
   4   4   2 1458.60  320.08   1
   4   4   2 1377.20  205.99   1
  -4  -4  -2 1278.54  208.89   1
   4   4   3 1238.53  307.73   1
   4   4   3 1282.59  315.47   1
  -4  -4  -3 1289.64  201.81   1
  -4  -4  -3 1326.07  200.45   1
   4   4   4 1418.71  349.89   1
   4   4   4 1454.16  357.94   1
   4   4   4 1455.56  225.94   1
  -4  -4  -4 1456.16  231.74   1
  -4  -4  -4 1631.50  230.16   1
   4   4   5 3835.36  909.64   1
   4   4   5 4317.05  913.41   1
   4   4   5 4180.28  591.75   1
  -4  -4  -5 3870.61  597.43   1
   4   4   6 4574.09 1141.92   1
   4   4   6 5355.48 1145.63   1
   4   4   6 5170.67  741.57   1
   4   4   7  304.91  154.50   1
   4   4   7  450.33  157.37   1
   4   4   7  434.49   75.27   1
  -4  -4  -7  303.85   80.27   1
   4   4   8  441.93  216.56   1
   4   4   8 1022.46  222.98   1
   4   4   8  833.71  135.52   1
  -4  -4  -8  818.16  139.60   1
   4   4   9  350.01  159.40   1
   4   4   9  272.79  177.30   1
   4   4   9  261.61   74.19   1
  -4  -4  -9  327.70   71.61   1
   4   4  10 3804.19 1022.29   1
   4   4  10 6154.54 1025.12   1
   4   4  10 3749.57  660.16   1
  -4  -4 -10 5136.52  661.89   1
   4   4  11 7315.99 1524.56   1
   4   4  11 8543.88 1529.53   1
   4   4  11 6088.38  982.39   1
  -4  -4 -11 7087.70  983.13   1
   4   4  12  975.67  321.53   1
   4   4  12 1347.59  399.42   1
   4   4  12 1129.26  192.29   1
  -4  -4 -12 1284.50  198.31   1
   4   4  13  607.79  288.58   1
   4   4  13  713.35  402.71   1
   4   4  13  885.36  155.43   1
  -4  -4 -13 1068.45  159.69   1
   4   4  14   24.45  248.51   1
   4   4  14  160.66  397.10   1
   4   4  14  161.95   65.77   1
  -4  -4 -14  177.93   71.74   1
   4   4  15  776.92  404.94   1
   4   4  15  495.51  529.75   1
   4   4  15 1412.03  221.58   1
  -4  -4 -15 1540.86  224.16   1
   4   4  16 1199.49  769.15   1
   4   4  16  566.42  900.96   1
   4   4  16 3192.18  455.49   1
  -4  -4 -16 3347.57  456.14   1
   4   5   030623.47 6799.70   1
   4   5   126360.89 4437.71   1
   4   5   120840.17 2843.91   1
  -4  -5  -116766.54 2848.65   1
  -4  -5  -120114.84 2844.44   1
   4   5   2 4633.14  800.88   1
   4   5   2 3539.58  517.18   1
  -4  -5  -2 3008.57  521.99   1
  -4  -5  -2 3785.70  518.56   1
   4   5   3 1206.14  292.63   1
   4   5   3 1266.30  185.40   1
  -4  -5  -3  988.03  192.46   1
  -4  -5  -3 1341.42  189.45   1
   4   5   4 9684.27 1847.95   1
   4   5   4 8885.56 1190.85   1
  -4  -5  -4 6197.78 1197.45   1
  -4  -5  -4 8630.26 1193.26   1
   4   5   536952.04 8033.60   1
   4   5   538022.05 5145.01   1
  -4  -5  -532634.38 5150.82   1
   4   5   621539.07 6541.79   1
   4   5   632872.92 4195.77   1
  -4  -5  -626755.60 4198.34   1
   4   5   710107.47 1876.39   1
   4   5   7 9040.77 1207.53   1
  -4  -5  -7 7381.54 1207.66   1
   4   5   8  588.79  181.19   1
   4   5   8  544.34  183.09   1
   4   5   8  319.10   71.93   1
  -4  -5  -8  246.62   73.26   1
   4   5   9 1595.00  343.96   1
   4   5   9 1843.04  353.82   1
   4   5   9 1182.78  212.79   1
  -4  -5  -9 1371.39  214.34   1
   4   5  1012829.66 2922.90   1
   4   5  1015332.32 2925.51   1
   4   5  10 9912.49 1880.35   1
  -4  -5 -1015970.60 1882.78   1
   4   5  1117382.32 4862.36   1
   4   5  1128989.92 4874.52   1
   4   5  1117631.01 3121.36   1
  -4  -5 -1125950.76 3123.88   1
   4   5  12 7702.91 2264.98   1
   4   5  1212092.30 2274.32   1
   4   5  12 9412.69 1458.95   1
  -4  -5 -1211023.96 1459.64   1
   4   5  13  809.26  331.03   1
   4   5  13  808.01  341.51   1
   4   5  13  952.21  162.59   1
  -4  -5 -13 1056.38  168.13   1
   4   5  14  209.68  227.13   1
   4   5  14  295.80   81.25   1
  -4  -5 -14  338.02   90.31   1
   4   5  15 1714.89  700.84   1
   4   5  15 1757.21  762.11   1
   4   5  15 3032.90  436.55   1
  -4  -5 -15 3103.18  436.83   1
   4   6   047643.2410579.52   1
   4   6   147631.6710577.02   1
   4   6   214160.43 3145.70   1
   4   6   3 1222.81  268.26   1
  -4  -6  -3  988.86  163.96   1
  -4  -6  -3 1080.78  164.47   1
   4   6   4 4742.62  961.06   1
   4   6   4 4345.78  619.54   1
  -4  -6  -4 3681.25  621.93   1
  -4  -6  -4 4672.50  622.31   1
   4   6   528730.30 5872.79   1
   4   6   528012.90 3763.28   1
  -4  -6  -523609.09 3766.21   1
   4   6   649861.5511262.03   1
   4   6   651888.52 7209.73   1
  -4  -6  -649598.87 7210.86   1
   4   6   719346.03 4289.15   1
   4   6   719903.47 2754.42   1
  -4  -6  -718692.14 2754.17   1
   4   6   8 1740.64  435.30   1
   4   6   8 1737.72  279.52   1
  -4  -6  -8 1968.59  281.93   1
   4   6   9 1394.42  367.74   1
   4   6   9 1284.01  234.56   1
  -4  -6  -9 1768.21  240.40   1
   4   6  10 5072.43 1140.25   1
   4   6  10 7450.63 1145.73   1
   4   6  10 3300.27  732.90   1
  -4  -6 -10 6219.58  736.60   1
   4   6  1116422.73 3296.14   1
   4   6  1125408.33 3314.42   1
   4   6  1111895.77 2115.84   1
  -4  -6 -1115459.96 2116.41   1
   4   6  1211102.41 2306.68   1
   4   6  1214967.85 2321.80   1
   4   6  12 9388.31 1481.80   1
  -4  -6 -1210358.51 1481.55   1
   4   6  13 2082.49  579.42   1
   4   6  13 2826.58  610.43   1
   4   6  13 2322.63  350.95   1
  -4  -6 -13 2289.53  350.05   1
   4   6  14  627.90  331.99   1
   4   6  14  424.15  412.11   1
   4   6  14  969.80  157.68   1
  -4  -6 -14  966.50  164.68   1
   4   6  15 1847.73  646.08   1
   4   6  15 2036.77  330.38   1
  -4  -6 -15 2302.80  333.55   1
   4   7   013006.14 2891.73   1
   4   7   124018.08 5335.55   1
   4   7   2 9800.61 2181.50   1
   4   7   3  521.46  203.89   1
   4   7   4  250.80  165.27   1
   4   7   4  156.38   42.62   1
  -4  -7  -4  169.62   45.24   1
   4   7   5 4237.50  795.19   1
   4   7   5 3442.82  510.06   1
  -4  -7  -5 3429.13  510.11   1
   4   7   6 9792.30 1753.56   1
   4   7   6 8483.32 1128.62   1
  -4  -7  -6 6966.23 1126.84   1
   4   7   7 5279.11  884.17   1
   4   7   7 3788.94  568.02   1
  -4  -7  -7 3740.45  566.89   1
   4   7   8  846.54  257.01   1
   4   7   8  699.95  136.97   1
  -4  -7  -8  921.03  141.58   1
   4   7   9  195.89  180.56   1
   4   7   9  134.39   62.74   1
  -4  -7  -9  219.18   64.30   1
   4   7  10 1252.70  261.32   1
   4   7  10  402.90  140.53   1
  -4  -7 -10 1164.90  148.10   1
   4   7  11 1258.14  335.53   1
   4   7  11  804.18  187.38   1
  -4  -7 -11 1474.70  193.91   1
   4   7  12  303.64  253.47   1
   4   7  12  244.28  344.48   1
   4   7  12  173.59   74.66   1
  -4  -7 -12  270.67   73.85   1
   4   7  13  351.65  290.71   1
   4   7  13  546.42  332.10   1
   4   7  13  392.47   91.67   1
  -4  -7 -13  467.42  104.34   1
   4   7  14  658.47  456.00   1
   4   7  14  659.98  121.94   1
  -4  -7 -14  552.62  121.83   1
   4   7  15  686.98  429.54   1
   4   7  15  783.30  394.57   1
   4   7  15  742.65  139.27   1
  -4  -7 -15  750.73  139.58   1
   4   8   0  789.24  247.09   1
   4   8   1 4594.20 1030.48   1
   4   8   2 1759.76  416.25   1
   4   8   3 1223.03  308.24   1
   4   8   4  771.26  196.48   1
  -4  -8  -4  519.73   93.64   1
   4   8   5 1484.08  356.80   1
   4   8   5 1351.53  218.11   1
  -4  -8  -5 1496.32  218.29   1
   4   8   6  707.28  225.38   1
   4   8   6  719.16  121.61   1
   4   8   7  259.07  177.00   1
   4   8   7  246.25   65.56   1
   4   8   8  929.48  319.94   1
   4   8   8 1205.80  201.63   1
  -4  -8  -8 1317.01  201.06   1
   4   8   9 2577.99  737.48   1
   4   8   9 2482.85  479.37   1
  -4  -8  -9 3905.55  477.53   1
   4   8  10 2016.34  501.49   1
   4   8  10  976.47  321.94   1
  -4  -8 -10 3011.34  322.10   1
   4   8  11  559.50  285.54   1
   4   8  11  227.52  111.38   1
  -4  -8 -11  673.86  107.75   1
   4   8  12  147.66  249.10   1
   4   8  12    7.10   66.68   1
  -4  -8 -12  123.57   75.56   1
   4   8  13  385.24  338.29   1
   4   8  13  -48.82  467.69   1
   4   8  13  177.04   74.22   1
  -4  -8 -13  109.43   82.53   1
   4   8  14 1180.58  436.65   1
   4   8  14  610.25  473.07   1
   4   8  14 1456.83  214.86   1
  -4  -8 -14 1170.28  209.14   1
   4   9   0 8110.34 1812.93   1
   4   9   1 5112.96  892.00   1
  -4  -9  -1 2591.90  884.85   1
   4   9   2 2843.62  592.17   1
  -4  -9  -2 2227.20  604.78   1
   4   9   3 8701.79 1940.88   1
   4   9   420263.29 4504.93   1
   4   9   519049.25 3685.82   1
   4   9   516419.19 2362.80   1
  -4  -9  -516340.38 2362.00   1
   4   9   6 5185.88 1016.52   1
   4   9   6 4768.48  653.91   1
  -4  -9  -6 4159.43  652.00   1
   4   9   7  685.29  265.14   1
   4   9   7  810.64  128.79   1
  -4  -9  -7  700.16  127.97   1
   4   9   8 2321.64  543.19   1
   4   9   8 2146.56  348.51   1
  -4  -9  -8 2419.48  346.05   1
   4   9   911386.96 2651.06   1
   4   9   910242.61 1705.76   1
  -4  -9  -913316.07 1704.47   1
   4   9  1016822.15 3066.31   1
   4   9  10 7054.41 1965.50   1
  -4  -9 -1019001.91 1968.72   1
   4   9  11 5690.82 1062.57   1
   4   9  11 1595.82  666.22   1
  -4  -9 -11 7050.51  674.03   1
   4   9  12  480.81  308.52   1
   4   9  12  219.42   92.93   1
  -4  -9 -12  485.32  110.47   1
   4   9  13  123.85  342.91   1
   4   9  13  280.87   93.91   1
  -4  -9 -13  446.13   97.44   1
   4   9  14 2314.70  705.86   1
   4   9  14 1769.49  845.24   1
   4   9  14 2330.92  415.25   1
  -4  -9 -14 3336.64  426.66   1
   4  10   022782.25 4032.68   1
  -4 -10   014397.91 4026.42   1
   4  10   1 5025.52  805.32   1
  -4 -10  -1 2250.89  798.54   1
   4  10   2 1179.45  300.80   1
  -4 -10  -2  441.84  270.87   1
   4  10   3 4370.34  879.23   1
  -4 -10  -3 3394.82  880.26   1
   4  10   425836.90 5669.44   1
  -4 -10  -425201.80 5669.75   1
   4  10   525286.49 5622.51   1
   4  10   6 8683.95 1386.15   1
   4  10   6 5927.67  884.30   1
   4  10   6 5635.40  886.16   1
  -4 -10  -6 6475.17  885.48   1
   4  10   7 1101.96  262.88   1
  -4 -10  -7  688.34  124.10   1
   4  10   8  947.25  271.95   1
   4  10   8  654.30  142.99   1
  -4 -10  -8  852.79  139.28   1
   4  10   9 6361.50  865.44   1
  -4 -10  -9 6340.20  545.89   1
   4  10  1011563.76 1627.91   1
  -4 -10 -1012338.10 1038.23   1
   4  10  11 4977.99  748.43   1
  -4 -10 -11 4753.73  415.57   1
   4  10  12  872.18  326.11   1
   4  10  12  -19.62   99.53   1
  -4 -10 -12  804.83  115.52   1
   4  10  13   66.03  433.48   1
   4  10  13  138.05   91.09   1
  -4 -10 -13  244.92  102.27   1
   4  11   010208.74 1893.78   1
  -4 -11   0 7274.65 1883.72   1
   4  11   1 1019.99  309.43   1
  -4 -11  -1  817.99  342.41   1
   4  11   2  578.91  221.30   1
  -4 -11  -2  -13.74  226.96   1
   4  11   3  548.29  243.01   1
  -4 -11  -3  563.61  299.83   1
   4  11   4 2301.39  503.64   1
  -4 -11  -4 1836.82  509.04   1
   4  11   5 7581.94 1756.52   1
  -4 -11  -5 8006.21 1757.81   1
   4  11   6 3124.43  732.28   1
   4  11   7  429.46  226.92   1
   4  11   7  124.20   56.09   1
   4  11   7   66.44   56.74   1
  -4 -11  -7  103.78   64.81   1
   4  11   8  102.60  225.62   1
   4  11   8   25.62   59.67   1
  -4 -11  -8   12.53   78.12   1
   4  11   9  408.69  275.51   1
   4  11   9  -13.56   73.78   1
  -4 -11  -9  219.95   79.79   1
   4  11  10  563.94  346.52   1
   4  11  10   45.95  104.14   1
  -4 -11 -10  744.61  111.37   1
   4  11  11  670.03  356.74   1
   4  11  11   68.54   96.42   1
  -4 -11 -11  482.80  104.97   1
   4  11  12   77.65  365.18   1
   4  11  12   32.28   84.85   1
  -4 -11 -12  122.01   76.31   1
   4  12   0 3172.71  824.43   1
  -4 -12   0 3389.11  820.02   1
   4  12   1 1850.55  508.74   1
  -4 -12  -1 1527.57  521.05   1
   4  12   2  218.38  292.46   1
  -4 -12  -2  106.38  290.41   1
   4  12   3  200.86  298.28   1
  -4 -12  -3  323.69  295.89   1
   4  12   4  978.78  344.38   1
  -4 -12  -4  723.95  342.80   1
   4  12   5  841.47  410.07   1
  -4 -12  -5 1069.25  427.44   1
   4  12   6 1274.29  403.11   1
   4  12   7  737.53  304.61   1
   4  12   7  236.86   81.13   1
  -4 -12  -7  413.60   85.77   1
   4  12   8  962.98  333.23   1
   4  12   8  556.56  119.02   1
   4  12   8  536.71  116.06   1
  -4 -12  -8  563.30  122.00   1
   4  12   9 1385.70  421.46   1
   4  12   9  834.44  125.06   1
   4  12   9    2.29  116.01   1
  -4 -12  -9  757.53  126.51   1
   4  12  10  328.08  389.78   1
   4  12  10  189.26   79.13   1
  -4 -12 -10  238.16   89.24   1
   4  13   1 2650.89  644.17   1
  -4 -13  -1 1942.84  617.82   1
   4  13   2 3801.84  781.66   1
  -4 -13  -2 2781.19  809.39   1
   4  13   3 6474.00 1070.52   1
  -4 -13  -3 3405.30 1054.80   1
   4  13   4 5081.33 1044.11   1
  -4 -13  -4 4067.95 1043.67   1
   4  13   5 2685.68  630.90   1
  -4 -13  -5 2294.80  636.80   1
   4  13   6  860.04  368.47   1
   4  13   7 2021.83  575.57   1
   5  -8   0  -60.83  323.76   1
   5  -8   0   -3.07   74.07   1
  -5   8   0   28.08  413.00   1
  -5   8   0   10.66   55.77   1
  -5   8   0   68.80   91.81   1
   5  -8   1  448.03  358.60   1
   5  -8   1  465.12  126.55   1
  -5   8  -1  496.50  443.79   1
  -5   8  -1  554.45  111.28   1
  -5   8  -1  548.12  116.02   1
   5  -8   2   95.36  338.92   1
  -5   8  -2  405.71  501.83   1
  -5   8  -2   23.62   60.65   1
  -5   8  -2  105.16  100.95   1
   5  -8   3 3374.61  791.23   1
   5  -8   3 2691.61  470.72   1
  -5   8  -3 3560.02  831.03   1
  -5   8  -3 2949.42  463.40   1
  -5   8  -3 3646.97  468.96   1
   5  -7   0  218.13  341.37   1
   5  -7   0  183.54   78.61   1
  -5   7   0    5.32  387.07   1
  -5   7   0  254.79   71.40   1
  -5   7   0  292.33   75.37   1
   5  -7   1 1951.41  570.80   1
   5  -7   1 1731.94  277.86   1
  -5   7  -1 1901.55  558.97   1
  -5   7  -1 1637.02  269.86   1
  -5   7  -1 1918.35  276.82   1
   5  -7   2 1240.68  423.06   1
   5  -7   2 1078.66  192.98   1
   5  -7   2 1023.74  188.97   1
  -5   7  -2 1309.20  461.79   1
  -5   7  -2 1115.15  180.69   1
  -5   7  -2 1189.61  183.92   1
   5  -7   3  404.69  331.23   1
   5  -7   3  100.19   87.00   1
  -5   7  -3  140.75  390.86   1
  -5   7  -3   31.38   59.16   1
  -5   7  -3  103.16   63.05   1
   5  -7   4  202.31  336.11   1
   5  -7   4  127.23   85.82   1
  -5   7  -4  274.29  370.22   1
  -5   7  -4  140.94   75.73   1
  -5   7  -4  126.11   67.07   1
   5  -7   5  127.03  339.71   1
   5  -7   5   37.96   84.32   1
  -5   7  -5 -260.41  349.97   1
  -5   7  -5   36.82   72.32   1
  -5   7  -5   -8.15   72.39   1
   5  -7   6  351.05  410.68   1
   5  -7   6  214.88  101.69   1
  -5   7  -6  314.47  392.71   1
  -5   7  -6  317.22   91.25   1
  -5   7  -6  276.56   91.13   1
   5  -6   0  716.36  424.14   1
   5  -6   0 1026.65  173.32   1
  -5   6   0  488.41  352.97   1
  -5   6   0 1013.82  164.14   1
  -5   6   0 1088.22  170.70   1
   5  -6   1 1111.57  438.82   1
   5  -6   1  903.22  168.06   1
   5  -6   1 1042.14  172.57   1
  -5   6  -1 1217.52  362.23   1
  -5   6  -1 1027.53  164.11   1
  -5   6  -1 1084.09  167.74   1
   5  -6   2 1178.59  407.76   1
   5  -6   2 1003.36  178.18   1
   5  -6   2 1134.27  187.60   1
  -5   6  -2 1289.90  373.45   1
  -5   6  -2 1155.00  174.75   1
  -5   6  -2 1067.44  175.70   1
   5  -6   3  374.00  430.13   1
   5  -6   3  711.66  138.77   1
  -5   6  -3  798.07  313.87   1
  -5   6  -3  768.49  128.87   1
  -5   6  -3  762.33  132.77   1
   5  -6   4 1590.77  628.10   1
   5  -6   4 2119.47  327.05   1
  -5   6  -4 2452.42  544.38   1
  -5   6  -4 2223.16  323.91   1
  -5   6  -4 2099.28  323.57   1
   5  -6   5 1903.99  534.03   1
   5  -6   5 1777.27  271.87   1
  -5   6  -5 2376.90  518.03   1
  -5   6  -5 1674.04  265.31   1
  -5   6  -5 1703.38  266.64   1
   5  -6   6  170.48  435.45   1
   5  -6   6  241.79  109.45   1
  -5   6  -6  409.76  342.20   1
  -5   6  -6  248.56   74.37   1
  -5   6  -6  225.10   78.63   1
   5  -6   7  -32.36  485.00   1
   5  -6   7  121.19   83.30   1
  -5   6  -7  281.19  368.43   1
  -5   6  -7   72.96   63.65   1
  -5   6  -7  125.92   70.15   1
   5  -6   8 -237.98  403.67   1
   5  -6   8   90.76   96.22   1
  -5   6  -8  101.87  372.33   1
  -5   6  -8  118.22   76.91   1
  -5   6  -8   43.09   72.28   1
   5  -5   0  579.37  333.69   1
   5  -5   0  158.91   67.17   1
  -5   5   0   98.43  264.06   1
  -5   5   0  127.62   53.29   1
  -5   5   0  160.71   60.29   1
   5  -5   1 1336.18  432.35   1
   5  -5   1 1258.17  202.65   1
   5  -5   1 1203.71  210.77   1
  -5   5  -1 1150.77  388.21   1
  -5   5  -1 1345.59  201.82   1
  -5   5  -1 1299.54  203.02   1
   5  -5   2 5912.77 1446.88   1
   5  -5   2 6289.37  910.23   1
   5  -5   2 6359.85  914.13   1
  -5   5  -2 5607.13 1422.48   1
  -5   5  -2 6612.18  909.56   1
  -5   5  -2 6042.10  909.04   1
   5  -5   3 2572.61  636.47   1
   5  -5   3 2461.04  360.47   1
   5  -5   3 2403.39  362.22   1
  -5   5  -3 2880.64  586.89   1
  -5   5  -3 2171.63  356.43   1
  -5   5  -3 2531.46  358.06   1
   5  -5   4  587.46  362.41   1
   5  -5   4  671.08  125.23   1
  -5   5  -4  959.50  293.35   1
  -5   5  -4  722.07  120.38   1
  -5   5  -4  709.99  122.33   1
   5  -5   5 1705.26  487.77   1
   5  -5   5 1673.68  241.79   1
  -5   5  -5 1638.32  426.38   1
  -5   5  -5 1657.67  238.18   1
  -5   5  -5 1288.88  240.87   1
   5  -5   6  154.86  336.46   1
   5  -5   6  159.93   64.73   1
  -5   5  -6  230.29  309.06   1
  -5   5  -6  143.01   64.48   1
  -5   5  -6  244.59   60.86   1
   5  -5   7 6232.75 1349.10   1
   5  -5   7 5656.60  842.45   1
  -5   5  -7 6045.92 1321.70   1
  -5   5  -7 5901.83  841.33   1
  -5   5  -7 5782.08  842.37   1
   5  -5   8 4237.03 1214.83   1
   5  -5   8 5024.50  740.94   1
  -5   5  -8 5031.43 1188.24   1
  -5   5  -8 4949.33  739.60   1
  -5   5  -8 5309.78  741.56   1
   5  -5   9  218.30  451.78   1
   5  -5   9   75.33   75.64   1
  -5   5  -9  -35.82  342.79   1
  -5   5  -9   85.58   76.21   1
  -5   5  -9  108.80   77.29   1
   5  -5  10  464.42  471.44   1
   5  -5  10  854.51  148.52   1
  -5   5 -10  -61.48  499.83   1
  -5   5 -10  768.46  140.90   1
  -5   5 -10  829.21  147.54   1
   5  -4   0  701.57  439.43   1
   5  -4   0  940.75  159.40   1
   5  -4   0  886.99  167.11   1
  -5   4   0  574.99  318.84   1
  -5   4   0 1020.51  157.53   1
  -5   4   0 1068.38  159.41   1
   5  -4   1  803.59  375.41   1
   5  -4   1  783.65  136.76   1
   5  -4   1  824.17  142.16   1
  -5   4  -1  467.24  279.82   1
  -5   4  -1  915.69  134.15   1
  -5   4  -1  735.61  133.92   1
   5  -4   213263.27 3138.15   1
   5  -4   214427.35 1999.06   1
   5  -4   215139.91 2002.05   1
  -5   4  -2 9582.68 3111.51   1
  -5   4  -213984.99 1997.78   1
  -5   4  -213211.76 1997.84   1
   5  -4   3 9108.49 2054.74   1
   5  -4   3 8581.09 1303.38   1
   5  -4   3 9676.35 1306.57   1
  -5   4  -3 8532.70 2030.13   1
  -5   4  -3 9376.86 1302.33   1
  -5   4  -3 8850.13 1302.92   1
   5  -4   4  861.70  395.94   1
   5  -4   4  685.63  119.22   1
  -5   4  -4  838.20  280.92   1
  -5   4  -4  712.57  115.24   1
  -5   4  -4  589.87  116.92   1
   5  -4   5 2411.06  633.96   1
   5  -4   5 2324.54  348.71   1
  -5   4  -5 2450.42  568.58   1
  -5   4  -5 2322.22  344.69   1
  -5   4  -5 2270.35  347.16   1
   5  -4   6  -65.29  348.14   1
   5  -4   6   18.58   52.74   1
  -5   4  -6  267.32  239.24   1
  -5   4  -6   56.93   54.14   1
  -5   4  -6   67.83   48.05   1
   5  -4   7 1812.44  658.55   1
   5  -4   7 2510.70  374.26   1
  -5   4  -7 2527.35  610.95   1
  -5   4  -7 2535.50  372.54   1
  -5   4  -7 2483.41  374.71   1
   5  -4   8 5699.43 1391.90   1
   5  -4   8 5677.93  867.18   1
  -5   4  -8 6704.72 1373.95   1
  -5   4  -8 6139.02  866.25   1
  -5   4  -8 6030.28  869.35   1
   5  -4   9 1086.70  492.33   1
   5  -4   9 1207.76  212.70   1
  -5   4  -9 1632.99  454.20   1
  -5   4  -9 1375.38  212.90   1
  -5   4  -9 1423.77  215.49   1
   5  -4  10  207.18  424.17   1
   5  -4  10  148.30   80.21   1
  -5   4 -10  265.42  390.90   1
  -5   4 -10  229.22   77.45   1
  -5   4 -10  307.51   98.28   1
   5  -4  11  652.15  574.41   1
   5  -4  11  154.79   78.75   1
  -5   4 -11    8.47  432.94   1
  -5   4 -11  185.66   93.19   1
  -5   4 -11  131.14   78.80   1
   5  -3   010327.38 2463.54   1
   5  -3   010499.34 1565.77   1
   5  -3   010851.53 1570.21   1
  -5   3   010198.48 2440.13   1
  -5   3   011359.12 1566.69   1
  -5   3   011163.46 1566.05   1
   5  -3   1 7102.23 1556.14   1
   5  -3   1 6931.23  989.65   1
   5  -3   1 7031.32  992.96   1
  -5   3  -1 5638.42 1539.13   1
  -5   3  -1 6876.57  988.81   1
  -5   3  -1 6797.36  989.12   1
   5  -3   2  826.86  334.64   1
   5  -3   2  894.98  139.91   1
   5  -3   2  799.53  144.73   1
  -5   3  -2  803.66  288.67   1
  -5   3  -2  812.33  137.33   1
  -5   3  -2  828.75  137.08   1
   5  -3   3  688.35  410.26   1
   5  -3   3 1086.25  169.86   1
   5  -3   3 1161.22  175.47   1
  -5   3  -3  805.86  316.42   1
  -5   3  -3 1026.74  168.13   1
  -5   3  -3 1041.04  168.74   1
   5  -3   4  170.57  297.18   1
   5  -3   4  388.64   82.93   1
  -5   3  -4  437.40  234.82   1
  -5   3  -4  385.19   78.37   1
  -5   3  -4  423.03   80.51   1
   5  -3   5 4626.86 1295.17   1
   5  -3   5 5614.25  823.74   1
  -5   3  -5 5037.32 1281.96   1
  -5   3  -5 5512.20  821.76   1
  -5   3  -5 6115.65  823.66   1
   5  -3   6 3175.31  929.06   1
   5  -3   6 3902.07  578.96   1
  -5   3  -6 3834.40  910.85   1
  -5   3  -6 4038.97  577.97   1
  -5   3  -6 3999.48  579.65   1
   5  -3   7  506.85  367.33   1
   5  -3   7  875.54  146.82   1
  -5   3  -7 1027.87  294.55   1
  -5   3  -7  831.03  145.08   1
  -5   3  -7  925.87  148.58   1
   5  -3   8  146.40  346.69   1
   5  -3   8   55.11   50.27   1
  -5   3  -8  228.57  228.63   1
  -5   3  -8   80.21   48.97   1
  -5   3  -8   41.38   54.44   1
   5  -3   9  217.17  611.05   1
   5  -3   9  308.75   83.05   1
  -5   3  -9  411.88  338.39   1
  -5   3  -9  404.65   84.74   1
  -5   3  -9  433.83   88.60   1
   5  -3  10  518.52  549.09   1
   5  -3  10  313.46   73.73   1
  -5   3 -10  200.77  378.45   1
  -5   3 -10  242.09   74.99   1
  -5   3 -10  290.74   78.95   1
   5  -3  11  388.85  526.30   1
   5  -3  11  477.35  113.89   1
  -5   3 -11  330.05  489.19   1
  -5   3 -11  665.90  118.24   1
  -5   3 -11  630.94  129.25   1
   5  -3  12  354.70  578.37   1
   5  -3  12  329.68   85.90   1
  -5   3 -12 -238.00  503.44   1
  -5   3 -12  305.66   84.89   1
  -5   3 -12  381.21   92.26   1
   5  -2   0 5800.75 1426.79   1
   5  -2   0 6272.83  909.48   1
   5  -2   0 6046.39  914.13   1
  -5   2   0 6550.46 1419.15   1
  -5   2   0 6628.85  910.95   1
  -5   2   0 6248.04  909.43   1
   5  -2   1 1599.13  496.69   1
   5  -2   1 1733.22  275.41   1
   5  -2   1 2021.63  279.41   1
  -5   2  -1 1649.23  449.76   1
  -5   2  -1 1878.04  273.98   1
  -5   2  -1 1722.00  273.86   1
   5  -2   2 3665.05  817.62   1
   5  -2   2 3284.62  502.45   1
   5  -2   2 3586.12  505.90   1
  -5   2  -2 3445.26  501.57   1
  -5   2  -2 3432.44  502.42   1
   5  -2   3 1925.12  554.73   1
   5  -2   3 1836.43  284.74   1
   5  -2   3 2045.56  289.23   1
  -5   2  -3 1667.17  470.57   1
  -5   2  -3 1887.26  284.17   1
  -5   2  -3 1860.01  284.56   1
   5  -2   4 1863.64  471.33   1
   5  -2   4 2018.68  247.67   1
  -5   2  -4 1641.15  415.38   1
  -5   2  -4 1857.17  245.57   1
  -5   2  -4  888.33  245.35   1
   5  -2   5   98.60  301.74   1
   5  -2   5  137.70   54.30   1
  -5   2  -5  169.17  201.96   1
  -5   2  -5  210.55   53.50   1
  -5   2  -5  150.88   56.37   1
   5  -2   6   63.92  310.41   1
   5  -2   6   55.04   47.69   1
  -5   2  -6   98.94  199.97   1
  -5   2  -6  113.65   55.37   1
  -5   2  -6   94.61   51.41   1
   5  -2   7  787.99  347.41   1
   5  -2   7  587.04  119.95   1
  -5   2  -7  726.13  261.90   1
  -5   2  -7  655.60  115.71   1
  -5   2  -7  723.38  124.76   1
   5  -2   8 2686.90  706.13   1
   5  -2   8 2961.52  432.65   1
  -5   2  -8 2673.79  685.13   1
  -5   2  -8 2904.39  431.75   1
  -5   2  -8 2935.50  435.74   1
   5  -2   9 3881.59  910.98   1
   5  -2   9 3358.06  514.05   1
  -5   2  -9 3639.81  845.33   1
  -5   2  -9 3652.46  514.91   1
  -5   2  -9 3400.71  517.45   1
   5  -2  10  -47.44  404.28   1
   5  -2  10  183.41   59.58   1
  -5   2 -10  186.15  337.97   1
  -5   2 -10  183.12   64.28   1
  -5   2 -10  194.60   70.86   1
   5  -2  11 1363.23  674.20   1
   5  -2  11 1159.48  195.86   1
  -5   2 -11 1309.57  511.45   1
  -5   2 -11 1314.74  199.22   1
  -5   2 -11 1178.04  199.83   1
   5  -2  12  144.66  645.05   1
   5  -2  12  144.19   65.80   1
  -5   2 -12  130.31   66.27   1
  -5   2 -12   76.90   71.67   1
   5  -2  13    9.29  515.88   1
   5  -2  13  467.47  100.16   1
  -5   2 -13  502.99  103.32   1
  -5   2 -13  469.35  109.86   1
   5  -1   0 2684.64  660.58   1
   5  -1   0 2879.50  409.62   1
   5  -1   0 3013.06  414.81   1
  -5   1   0 2707.28  643.01   1
  -5   1   0 2863.91  410.77   1
  -5   1   0 2462.44  408.88   1
   5  -1   1 7555.07 1881.71   1
   5  -1   1 8579.33 1207.29   1
   5  -1   1 9068.76 1211.08   1
  -5   1  -1 7150.93 1874.81   1
  -5   1  -1 8223.43 1207.28   1
  -5   1  -1 8172.35 1206.97   1
   5  -1   2 2781.43  644.87   1
   5  -1   2 2502.10  394.85   1
   5  -1   2 2953.11  399.39   1
  -5   1  -2 2379.13  623.04   1
  -5   1  -2 2703.85  394.95   1
  -5   1  -2 2658.24  395.23   1
   5  -1   3  -12.37  250.24   1
   5  -1   3  133.77   59.34   1
   5  -1   3  171.99   60.11   1
  -5   1  -3  -70.42  198.97   1
  -5   1  -3  153.90   49.51   1
  -5   1  -3  174.58   51.16   1
   5  -1   4 1210.70  385.94   1
   5  -1   4 1057.53  168.44   1
  -5   1  -4 1139.61  302.51   1
  -5   1  -4 1002.56  168.30   1
  -5   1  -4 1110.34  169.62   1
   5  -1   5 2693.04  595.34   1
   5  -1   5 2428.97  361.24   1
  -5   1  -5 1950.24  574.49   1
  -5   1  -5 2355.75  362.24   1
  -5   1  -5 2577.15  363.02   1
   5  -1   612241.76 3169.73   1
   5  -1   614045.89 2031.02   1
  -5   1  -613064.63 3161.75   1
  -5   1  -613828.38 2031.30   1
  -5   1  -615345.15 2034.06   1
   5  -1   7 9229.63 2162.38   1
   5  -1   7 9510.33 1387.50   1
  -5   1  -7 9467.53 2154.76   1
  -5   1  -7 9728.43 1387.34   1
  -5   1  -7 9881.49 1390.92   1
   5  -1   8 -286.73  258.07   1
   5  -1   8  -15.10   43.53   1
  -5   1  -8  -99.14  174.88   1
  -5   1  -8   18.66   56.13   1
  -5   1  -8   50.23   45.38   1
   5  -1   9 1575.66  451.86   1
   5  -1   9 1555.07  244.02   1
  -5   1  -9 1485.26  397.84   1
  -5   1  -9 1662.80  248.42   1
  -5   1  -9 1533.54  247.35   1
   5  -1  10  113.53  410.62   1
   5  -1  10   32.24   45.68   1
  -5   1 -10  102.63  369.99   1
  -5   1 -10   70.97   54.96   1
  -5   1 -10   14.13   50.09   1
   5  -1  11 4722.96 1092.08   1
   5  -1  11 4105.42  638.49   1
  -5   1 -11 4883.74  642.05   1
  -5   1 -11 4103.99  642.80   1
   5  -1  12 6258.70 1539.55   1
   5  -1  12 6028.75  934.29   1
  -5   1 -12 6957.34  938.45   1
  -5   1 -12 6525.64  939.64   1
   5  -1  13  610.97  705.64   1
   5  -1  13  743.02  128.48   1
  -5   1 -13  620.38  143.30   1
  -5   1 -13  805.88  139.14   1
   5  -1  14  299.88  607.52   1
   5  -1  14  401.26   94.28   1
  -5   1 -14  486.39  114.83   1
  -5   1 -14  459.75  106.35   1
   5   0   0 3052.61  878.35   1
   5   0   0 3969.53  559.81   1
   5   0   0 3836.73  564.44   1
  -5   0   0 3474.18  865.27   1
  -5   0   0 4023.31  561.16   1
  -5   0   0 3687.29  560.36   1
   5   0   125213.42 6242.52   1
   5   0   127019.13 3999.39   1
   5   0   129848.91 4003.63   1
  -5   0  -125921.48 6241.58   1
  -5   0  -128806.64 4000.78   1
  -5   0  -127957.88 4000.56   1
   5   0   212499.83 2839.66   1
   5   0   212147.54 1822.41   1
   5   0   213394.85 1826.29   1
  -5   0  -210892.68 2835.92   1
  -5   0  -212667.63 1823.78   1
  -5   0  -213344.79 1823.95   1
   5   0   3  895.06  278.40   1
   5   0   3  738.52  127.63   1
   5   0   3  918.36  133.39   1
  -5   0  -3  656.49  230.16   1
  -5   0  -3  782.67  127.20   1
  -5   0  -3  669.27  126.98   1
   5   0   4 5113.77 1291.63   1
   5   0   4 5671.96  828.40   1
  -5   0  -4 4905.58 1282.42   1
  -5   0  -4 5964.35  829.10   1
  -5   0  -4 5789.50  830.01   1
   5   0   5    9.38  228.87   1
   5   0   5   21.64   42.00   1
  -5   0  -5  166.03  133.41   1
  -5   0  -5   10.56   41.51   1
  -5   0  -5   70.92   46.59   1
   5   0   611972.26 2835.94   1
   5   0   612807.76 1820.38   1
  -5   0  -612791.07 1821.01   1
  -5   0  -612655.85 1823.17   1
   5   0   714573.67 3287.02   1
   5   0   715172.70 2109.15   1
  -5   0  -713270.91 3280.80   1
  -5   0  -715053.41 2109.17   1
  -5   0  -714162.36 2111.56   1
   5   0   8  496.07  272.68   1
   5   0   8  483.04   95.61   1
  -5   0  -8  661.64  253.59   1
  -5   0  -8  549.55   98.41   1
  -5   0  -8  465.17   98.90   1
   5   0   9 3296.05  799.51   1
   5   0   9 3379.34  498.69   1
  -5   0  -9 3849.71  788.05   1
  -5   0  -9 3372.29  500.17   1
  -5   0  -9 3362.96  502.05   1
   5   0  10  904.07  312.46   1
   5   0  10  643.95  115.35   1
  -5   0 -10  695.41  121.55   1
  -5   0 -10  582.17  118.83   1
   5   0  11  470.11  371.76   1
   5   0  11  454.39   90.19   1
  -5   0 -11  513.52  103.95   1
  -5   0 -11  381.53   94.24   1
   5   0  12 2689.05  707.31   1
   5   0  12 2714.36  405.10   1
  -5   0 -12 2823.88  408.36   1
  -5   0 -12 2623.53  409.25   1
   5   0  13  802.68  455.83   1
   5   0  13  702.79  129.08   1
  -5   0 -13  783.99  140.42   1
  -5   0 -13  675.09  138.10   1
   5   0  14    7.74  603.65   1
   5   0  14   67.63   54.58   1
  -5   0 -14   44.62   67.70   1
  -5   0 -14  104.56   69.44   1
   5   1   0 3021.53  786.27   1
   5   1   0 3526.11  497.77   1
   5   1   0 3401.96  502.20   1
  -5  -1   0 3388.81  770.52   1
  -5  -1   0 3275.68  499.07   1
  -5  -1   0 3482.74  498.17   1
   5   1   1 1476.51  342.59   1
   5   1   1 1294.20  201.04   1
   5   1   1 1315.49  204.94   1
  -5  -1  -1 1242.02  321.09   1
  -5  -1  -1 1342.19  202.05   1
  -5  -1  -1 1313.72  201.26   1
   5   1   2 1205.25  300.87   1
   5   1   2 1069.65  168.21   1
   5   1   2 1179.17  172.23   1
  -5  -1  -2 1012.96  277.95   1
  -5  -1  -2 1001.04  168.63   1
  -5  -1  -2 1105.44  169.76   1
   5   1   3 1410.79  355.71   1
   5   1   3 1294.16  192.46   1
   5   1   3 1325.89  194.62   1
  -5  -1  -3 1327.21  313.71   1
  -5  -1  -3 1079.50  191.96   1
  -5  -1  -3 1273.99  195.09   1
   5   1   419575.75 4040.61   1
   5   1   417019.75 2589.96   1
  -5  -1  -416005.79 4035.40   1
  -5  -1  -418792.27 2591.05   1
  -5  -1  -419026.60 2592.28   1
   5   1   5 8668.03 1958.05   1
   5   1   5 8807.24 1257.90   1
  -5  -1  -5 8562.46 1258.50   1
  -5  -1  -5 8976.39 1260.74   1
   5   1   6 1384.66  381.63   1
   5   1   6 1450.11  218.20   1
  -5  -1  -6 1103.88  368.35   1
  -5  -1  -6 1462.88  219.07   1
  -5  -1  -6 1357.47  220.92   1
  -5  -1  -7  260.86  194.45   1
   5   1   7  112.43  216.45   1
   5   1   7   90.38   47.81   1
  -5  -1  -7  109.41   60.80   1
  -5  -1  -7  144.86   58.85   1
   5   1   8  573.62  252.51   1
   5   1   8  543.73  102.69   1
  -5  -1  -8  583.27  104.89   1
  -5  -1  -8  480.03  102.96   1
   5   1   9 3013.36  690.69   1
   5   1   9 2909.28  431.83   1
  -5  -1  -9 3037.21  434.67   1
  -5  -1  -9 2789.30  434.86   1
   5   1  10 3703.04  800.59   1
   5   1  10 3362.21  492.23   1
  -5  -1 -10 3507.63  496.02   1
  -5  -1 -10 3080.85  495.26   1
   5   1  11 1146.91  394.58   1
   5   1  11  964.73  156.48   1
  -5  -1 -11  939.83  159.80   1
  -5  -1 -11  911.93  160.43   1
   5   1  12 1107.67  365.48   1
   5   1  12  821.13  143.19   1
  -5  -1 -12  959.25  147.25   1
  -5  -1 -12  749.33  147.50   1
   5   1  13  313.99  347.58   1
   5   1  13  645.46  117.20   1
  -5  -1 -13  613.69  127.16   1
  -5  -1 -13  692.30  126.59   1
   5   1  14  351.70  508.52   1
   5   1  14  564.33  103.82   1
  -5  -1 -14  488.19  115.73   1
  -5  -1 -14  536.81  113.64   1
   5   1  15  140.50  422.93   1
   5   1  15  100.17  723.42   1
   5   1  15  104.50   58.35   1
  -5  -1 -15   77.67   59.04   1
  -5  -1 -15  125.18   72.38   1
   5   2   0 6171.03 1421.12   1
   5   2   0 6280.28  915.17   1
   5   2   0 6945.64  919.86   1
  -5  -2   0 6211.74  916.69   1
  -5  -2   0 6216.41  915.88   1
   5   2   1  262.63  207.88   1
   5   2   1  357.70   67.53   1
   5   2   1  341.41   71.25   1
  -5  -2  -1  384.29   67.53   1
  -5  -2  -1  344.61   66.32   1
   5   2   2  129.92  165.49   1
   5   2   2   37.65   32.71   1
   5   2   2   57.45   36.96   1
  -5  -2  -2  111.49   33.98   1
  -5  -2  -2   59.89   36.82   1
   5   2   3  580.84  201.35   1
   5   2   3  558.40   92.68   1
  -5  -2  -3  542.93   94.83   1
  -5  -2  -3  513.34   96.41   1
   5   2   4 2719.80  652.36   1
   5   2   4 2696.88  413.76   1
  -5  -2  -4 2845.79  415.86   1
  -5  -2  -4 2971.47  417.29   1
   5   2   5 1350.23  327.26   1
   5   2   5 1172.98  184.84   1
  -5  -2  -5 1209.90  187.01   1
  -5  -2  -5 1182.77  187.95   1
   5   2   6  640.30  232.09   1
   5   2   6  609.91  106.45   1
  -5  -2  -6  634.11  112.21   1
  -5  -2  -6  609.79  109.73   1
   5   2   7  560.81  277.00   1
   5   2   7  931.08  147.59   1
  -5  -2  -7  994.09  152.47   1
  -5  -2  -7  859.07  150.09   1
   5   2   8 2759.93  699.00   1
   5   2   8 3207.99  446.87   1
  -5  -2  -8 2853.00  449.11   1
  -5  -2  -8 3048.83  450.12   1
   5   2   9  370.95  263.00   1
   5   2   9  151.36   53.37   1
  -5  -2  -9  158.87   66.49   1
  -5  -2  -9  117.70   55.76   1
   5   2  10  228.24  233.13   1
   5   2  10  102.25   56.94   1
  -5  -2 -10  103.33   61.06   1
  -5  -2 -10   73.95   52.09   1
   5   2  11  130.98  362.51   1
   5   2  11  215.82   60.82   1
  -5  -2 -11  234.31   74.82   1
   5   2  12 1136.77  344.16   1
   5   2  12  690.44  132.32   1
  -5  -2 -12  824.50  141.27   1
   5   2  13 1064.13  546.37   1
   5   2  13 1513.13  511.26   1
   5   2  13 1882.28  282.20   1
  -5  -2 -13 1961.27  282.88   1
   5   2  14  -34.32  335.20   1
   5   2  14   64.96  434.48   1
   5   2  14  169.87   61.62   1
  -5  -2 -14  189.04   64.66   1
   5   2  15  942.14  505.77   1
   5   2  15  806.75  618.81   1
   5   2  15 1121.68  189.62   1
  -5  -2 -15 1275.46  191.42   1
   5   3   0 6746.94 1581.06   1
   5   3   0 7660.43 1017.63   1
   5   3   0 6903.95 1021.40   1
  -5  -3   0 6746.53 1018.91   1
  -5  -3   0 6932.67 1018.07   1
   5   3   1 1189.29  275.05   1
   5   3   1 1148.14  167.02   1
  -5  -3  -1 1016.47  168.00   1
  -5  -3  -1 1039.13  166.82   1
   5   3   2  112.07  140.60   1
   5   3   2   13.70   26.84   1
  -5  -3  -2   -9.66   31.62   1
  -5  -3  -2   33.82   31.52   1
   5   3   3  -52.98  138.22   1
   5   3   3   25.80   29.53   1
  -5  -3  -3  -16.50   34.28   1
  -5  -3  -3   46.34   35.18   1
   5   3   4 8658.33 1985.31   1
   5   3   4 8634.17 1277.01   1
  -5  -3  -4 8945.87 1280.03   1
  -5  -3  -4 9301.79 1280.32   1
   5   3   516299.55 3312.90   1
   5   3   514531.84 2126.57   1
  -5  -3  -514988.17 2130.34   1
  -5  -3  -515006.40 2129.41   1
   5   3   6 7778.82 1647.11   1
   5   3   6 7178.97 1060.10   1
  -5  -3  -6 7343.73 1063.88   1
  -5  -3  -6 7581.48 1063.30   1
   5   3   7  185.80  194.31   1
   5   3   7  226.46   55.58   1
  -5  -3  -7  205.84   67.23   1
  -5  -3  -7  170.32   62.54   1
   5   3   8  839.31  271.22   1
   5   3   8  939.17  145.48   1
  -5  -3  -8  849.18  157.13   1
  -5  -3  -8  858.85  147.57   1
   5   3   9  827.80  258.56   1
   5   3   9  812.87  132.44   1
  -5  -3  -9  747.41  139.89   1
   5   3  1011367.30 2296.59   1
   5   3  10 9991.86 1475.13   1
  -5  -3 -1010514.78 1480.41   1
   5   3  1111447.54 1932.44   1
   5   3  11 7522.79 1233.35   1
  -5  -3 -11 9472.62 1237.84   1
   5   3  12   80.47  314.87   1
   5   3  12  109.13  387.32   1
   5   3  12  140.68   57.37   1
  -5  -3 -12  261.84   61.95   1
   5   3  13  555.55  330.03   1
   5   3  13  425.48  424.35   1
   5   3  13  366.22   91.35   1
  -5  -3 -13  553.31   92.63   1
   5   3  14  240.70  231.03   1
   5   3  14   35.83  403.30   1
   5   3  14   95.48   60.13   1
  -5  -3 -14  197.44   66.21   1
   5   3  15  991.06  586.81   1
   5   3  15  628.08  658.16   1
   5   3  15 1667.06  273.37   1
  -5  -3 -15 2081.02  277.68   1
   5   4   011985.03 2438.94   1
   5   4   011247.06 1571.10   1
  -5  -4   011430.53 1568.96   1
  -5  -4   010252.76 1567.27   1
   5   4   1 4082.25  853.59   1
  -5  -4  -1 3790.44  552.22   1
  -5  -4  -1 3754.05  550.78   1
   5   4   2  608.77   55.59   1
   5   4   2  585.43   89.60   1
  -5  -4  -2  493.30   92.14   1
  -5  -4  -2  481.29   91.84   1
   5   4   3 8670.33 1538.40   1
   5   4   3 6815.24  990.65   1
  -5  -4  -3 6721.80  993.32   1
   5   4   4  320.24  179.76   1
   5   4   4  351.50   62.29   1
  -5  -4  -4  323.76   67.13   1
  -5  -4  -4  301.29   68.65   1
   5   4   512991.61 2652.00   1
   5   4   512236.98 1725.47   1
  -5  -4  -511613.77 1729.07   1
  -5  -4  -512096.18 1728.33   1
   5   4   614391.89 2555.60   1
   5   4   611759.40 1641.86   1
  -5  -4  -610375.24 1644.87   1
  -5  -4  -611516.25 1644.17   1
   5   4   7  328.31  193.17   1
  -5  -4  -7  357.42   89.32   1
  -5  -4  -7  289.25   74.07   1
   5   4   8 4677.90  989.34   1
   5   4   8 4623.20  635.80   1
  -5  -4  -8 3892.33  640.50   1
   5   4   9 1347.69  415.44   1
   5   4   9 2037.02  404.91   1
   5   4   9 1701.93  246.99   1
  -5  -4  -9 1418.77  252.75   1
   5   4  10 1685.52  519.42   1
   5   4  10 2270.27  529.58   1
   5   4  10 2216.64  332.18   1
  -5  -4 -10 2314.16  338.65   1
   5   4  11 3516.47  874.72   1
   5   4  11 5005.72  868.21   1
   5   4  11 3209.42  542.27   1
  -5  -4 -11 4068.29  544.71   1
   5   4  12  478.77  242.59   1
   5   4  12  373.87  359.91   1
   5   4  12  292.53   78.75   1
  -5  -4 -12  417.18   80.58   1
   5   4  13 1800.43  451.37   1
   5   4  13 1771.84  472.07   1
   5   4  13 1445.08  243.41   1
  -5  -4 -13 1641.51  246.20   1
   5   4  14  575.54  288.39   1
   5   4  14  412.99  498.37   1
   5   4  14  785.35  143.70   1
  -5  -4 -14  955.25  149.51   1
   5   4  15  -69.35  319.20   1
   5   4  15   -7.79  489.30   1
   5   4  15   82.81   55.63   1
  -5  -4 -15   11.27   65.50   1
   5   5   0 2986.51  703.31   1
   5   5   0 2847.19  713.25   1
  -5  -5   0 3101.17  458.94   1
  -5  -5   0 3235.53  458.36   1
   5   5   1 1488.22  288.75   1
   5   5   1 1337.99  327.39   1
   5   5   1 1113.59  185.08   1
  -5  -5  -1 1170.20  189.25   1
  -5  -5  -1 1289.17  187.32   1
   5   5   2 8673.21 1771.70   1
   5   5   2 9343.28 1772.97   1
   5   5   2 8055.14 1138.06   1
  -5  -5  -2 7403.78 1139.34   1
   5   5   322874.45 4663.60   1
   5   5   324438.44 4664.18   1
   5   5   320898.08 2989.32   1
  -5  -5  -319690.50 2993.33   1
   5   5   410273.32 2104.32   1
   5   5   410207.98 2106.85   1
   5   5   4 8760.85 1353.50   1
  -5  -5  -4 9056.06 1357.88   1
  -5  -5  -410348.93 1356.92   1
   5   5   5  105.71  154.22   1
   5   5   5   69.01  184.90   1
   5   5   5   52.31   29.72   1
  -5  -5  -5   43.42   40.19   1
  -5  -5  -5   35.69   37.52   1
   5   5   6  785.87  227.71   1
   5   5   6  864.62  247.77   1
   5   5   6  764.65  120.14   1
  -5  -5  -6  612.54  129.76   1
  -5  -5  -6  743.07  124.63   1
   5   5   7 1427.28  415.41   1
   5   5   7 2036.79  407.94   1
   5   5   7 1799.36  252.41   1
  -5  -5  -7 1394.23  260.12   1
   5   5   8 6663.90 1797.00   1
   5   5   8 9954.53 1802.49   1
   5   5   8 8364.93 1159.47   1
  -5  -5  -8 7452.54 1165.00   1
   5   5   9 5943.20 1569.49   1
   5   5   9 8259.48 1575.21   1
   5   5   9 7380.91 1013.08   1
  -5  -5  -9 6554.37 1016.21   1
   5   5  10  554.49  235.31   1
   5   5  10  927.10  257.80   1
   5   5  10  722.03  125.52   1
  -5  -5 -10  720.63  127.10   1
   5   5  11  -37.27  257.42   1
   5   5  11  185.89  247.04   1
   5   5  11   80.00   48.65   1
  -5  -5 -11   87.00   50.64   1
   5   5  12  303.52  284.95   1
   5   5  12  800.35  282.69   1
   5   5  12  337.61   97.39   1
  -5  -5 -12  572.57   95.95   1
   5   5  13  829.52  351.36   1
   5   5  13 1276.46  398.91   1
   5   5  13  932.23  183.25   1
  -5  -5 -13 1381.40  193.67   1
   5   5  14  414.64  299.94   1
   5   5  14  728.03  466.03   1
   5   5  14  596.43  136.12   1
  -5  -5 -14  916.00  138.19   1
   5   5  15  721.22  335.93   1
   5   5  15  275.79  472.04   1
   5   5  15  481.49  109.55   1
  -5  -5 -15  636.99  117.57   1
   5   6   0  190.81  174.67   1
   5   6   1 1127.59  295.97   1
   5   6   2  355.25  206.20   1
  -5  -6  -2  246.27   55.80   1
   5   6   3 3957.16  654.20   1
   5   6   3 2867.14  414.38   1
  -5  -6  -3 2410.03  420.87   1
  -5  -6  -3 2873.43  415.63   1
   5   6   4 2525.35  492.59   1
   5   6   4 1944.47  307.91   1
  -5  -6  -4 2161.57  312.20   1
   5   6   5  302.65  185.96   1
   5   6   5  272.29   58.90   1
  -5  -6  -5  345.25   86.36   1
  -5  -6  -5  314.28   69.87   1
   5   6   6   90.64  178.18   1
  -5  -6  -6   86.88   52.87   1
  -5  -6  -6  128.58   40.74   1
   5   6   7  134.15  181.87   1
   5   6   7 -187.45  192.12   1
   5   6   7   25.81   30.50   1
  -5  -6  -7  -26.48   38.64   1
   5   6   8  -30.93  190.35   1
   5   6   8   26.30  200.16   1
   5   6   8   43.85   45.94   1
  -5  -6  -8   52.75   50.98   1
   5   6   9  104.13  187.58   1
   5   6   9   19.06  196.73   1
   5   6   9   50.85   43.32   1
   5   6  10  224.41  185.65   1
   5   6  10   12.97  193.74   1
   5   6  10   29.65   45.03   1
  -5  -6 -10   52.97   48.63   1
   5   6  11  375.54  219.17   1
   5   6  11  742.37  301.54   1
   5   6  11  391.28   99.94   1
  -5  -6 -11  680.41  110.13   1
   5   6  12  569.98  254.82   1
   5   6  12  720.29  373.91   1
   5   6  12  324.99  102.92   1
  -5  -6 -12  666.36  108.12   1
   5   6  13  -55.24  257.42   1
   5   6  13  -50.62  285.99   1
   5   6  13   17.63   46.18   1
  -5  -6 -13  -30.75   56.80   1
   5   6  14  513.76  288.04   1
   5   6  14  768.75  430.17   1
   5   6  14  519.92  127.71   1
  -5  -6 -14  787.70  141.12   1
   5   6  15  542.39  476.71   1
   5   6  15  636.53  128.39   1
  -5  -6 -15  763.62  136.75   1
   5   7   0  947.06  259.80   1
   5   7   1 1383.31  354.34   1
   5   7   2 1241.35  310.73   1
   5   7   3 3787.74  855.35   1
   5   7   4 7253.99 1481.35   1
   5   7   4 6761.31  952.30   1
  -5  -7  -4 6300.27  954.84   1
   5   7   5 4158.25  869.81   1
   5   7   5 3895.92  559.24   1
  -5  -7  -5 3708.98  562.30   1
   5   7   6  209.17  156.43   1
   5   7   6   43.24   43.24   1
  -5  -7  -6   85.87   52.98   1
   5   7   7  -78.90  170.43   1
   5   7   7   -2.87   40.48   1
   5   7   8 1624.60  456.23   1
   5   7   8 2022.15  290.94   1
  -5  -7  -8 1834.18  296.69   1
   5   7   9 7358.51 1992.44   1
   5   7   910755.09 1998.16   1
   5   7   9 8980.78 1283.22   1
  -5  -7  -9 8821.15 1285.54   1
   5   7  10 4264.53 1220.93   1
   5   7  10 6188.66 1234.34   1
   5   7  10 5401.90  790.27   1
  -5  -7 -10 5577.58  793.98   1
   5   7  11  -41.68  199.80   1
   5   7  11  233.34  314.60   1
   5   7  11   32.49   58.97   1
  -5  -7 -11  221.63   87.52   1
   5   7  12  702.89  296.38   1
   5   7  12  699.36  332.34   1
   5   7  12  192.43   94.63   1
  -5  -7 -12  456.81   97.43   1
   5   7  13   46.23  248.22   1
   5   7  13   85.35  336.78   1
   5   7  13  -10.74   69.71   1
  -5  -7 -13  -28.61   69.55   1
   5   7  14 2706.85  767.83   1
   5   7  14 3097.65  820.45   1
   5   7  14 2707.22  467.66   1
  -5  -7 -14 3625.89  470.29   1
   5   7  15 1261.23  540.61   1
   5   7  15  832.63  611.81   1
   5   7  15 2076.15  329.58   1
  -5  -7 -15 2466.69  331.52   1
   5   8   0 1126.81  310.88   1
   5   8   1 2671.31  615.77   1
   5   8   2 2605.31  604.52   1
   5   8   3 1259.85  332.01   1
   5   8   4 8927.01 1991.89   1
   5   8   5 3533.01  719.23   1
   5   8   5 3316.97  457.77   1
  -5  -8  -5 2793.42  457.14   1
  -5  -8  -5 3266.50  461.09   1
   5   8   6 1742.77  397.66   1
   5   8   6 1626.19  243.02   1
  -5  -8  -6 1486.70  243.55   1
  -5  -8  -6 1657.83  246.23   1
   5   8   7 5413.30 1011.86   1
  -5  -8  -7 4307.39  648.27   1
   5   8   8  702.60  236.52   1
   5   8   8  588.99  112.60   1
  -5  -8  -8  611.85  119.63   1
   5   8   9 2814.43  688.39   1
   5   8   9 2924.71  438.85   1
  -5  -8  -9 3001.43  440.95   1
   5   8  10 2750.46  735.72   1
   5   8  10 2829.89  468.77   1
  -5  -8 -10 3563.55  473.44   1
   5   8  11   10.36  233.93   1
   5   8  11  264.60  343.42   1
   5   8  11  -14.97   68.45   1
  -5  -8 -11   77.08   70.06   1
   5   8  12 1989.29  492.05   1
   5   8  12 3192.38  591.40   1
   5   8  12 1059.75  289.62   1
  -5  -8 -12 2479.86  300.80   1
   5   8  13 1092.34  361.14   1
   5   8  13 1684.40  416.43   1
   5   8  13  492.52  156.29   1
  -5  -8 -13 1170.36  165.20   1
   5   8  14  -17.96  322.46   1
   5   8  14  157.03  384.36   1
   5   8  14    1.77   77.75   1
  -5  -8 -14  -18.27   70.90   1
   5   9   0    7.49  160.43   1
   5   9   1 6061.69 1357.85   1
   5   9   213644.11 3036.83   1
   5   9   3 4203.01  956.28   1
   5   9   4  232.54  177.22   1
   5   9   5  351.13  178.80   1
  -5  -9  -5  233.79   59.90   1
   5   9   6 1679.09  361.63   1
   5   9   6 1426.75  211.39   1
  -5  -9  -6 1273.52  211.84   1
   5   9   7 9125.78 2105.55   1
   5   9   7 9217.62 1352.29   1
  -5  -9  -7 9697.28 1353.64   1
   5   9   8 4948.15 1196.72   1
   5   9   8 5155.16  770.41   1
  -5  -9  -8 5512.91  771.92   1
   5   9   9  210.32  191.95   1
   5   9   9  254.84   74.69   1
   5   9  10   -2.20  186.69   1
   5   9  10   -8.58   63.90   1
  -5  -9 -10   85.74   80.93   1
   5   9  11    7.01  230.16   1
   5   9  11  195.21   71.99   1
  -5  -9 -11  277.62   97.22   1
   5   9  12 1587.59  435.18   1
   5   9  12 2741.66  546.98   1
   5   9  12  908.22  251.44   1
  -5  -9 -12 2072.34  256.76   1
   5   9  13 1123.99  407.29   1
   5   9  13 1378.24  486.53   1
   5   9  13  174.07  152.34   1
  -5  -9 -13 1393.34  163.58   1
   5   9  14   46.54  322.77   1
   5   9  14  237.77  476.57   1
   5   9  14  134.91   83.52   1
  -5  -9 -14   89.51   77.51   1
   5  10   0 1440.76  406.57   1
   5  10   1   83.62  184.33   1
   5  10   2 3147.91  724.97   1
   5  10   3 1120.36  303.88   1
   5  10   4  157.71  176.04   1
   5  10   5  794.62  249.89   1
   5  10   6  126.60  177.21   1
  -5 -10  -6   -2.69   38.61   1
  -5 -10  -6   11.57   38.33   1
   5  10   7  274.80  183.64   1
   5  10   7  112.55   49.42   1
  -5 -10  -7   86.31   54.34   1
   5  10   8  123.48  184.01   1
   5  10   8   47.39   45.17   1
  -5 -10  -8   29.53   57.84   1
   5  10   9  132.51  190.97   1
   5  10   9   63.04   58.39   1
  -5 -10  -9   24.02   67.92   1
   5  10  10   12.03  199.95   1
   5  10  10    3.31   63.71   1
  -5 -10 -10   37.46   75.39   1
   5  10  11   95.75  281.08   1
   5  10  11  -30.08   56.76   1
  -5 -10 -11   39.48   81.84   1
   5  10  12   34.20  298.37   1
   5  10  12    2.52   73.57   1
  -5 -10 -12   87.13   87.77   1
   5  10  13  452.09  344.04   1
   5  10  13  634.83  346.96   1
   5  10  13   -4.52   76.19   1
  -5 -10 -13  404.26  123.71   1
   5  11   0 1393.30  419.04   1
   5  11   1 1853.61  469.12   1
   5  11   2 1595.98  422.15   1
   5  11   3 2003.38  497.44   1
   5  11   4  777.66  269.23   1
   5  11   5  675.63  250.66   1
   5  11   6  419.37  222.20   1
   5  11   7 1375.41  337.92   1
   5  11   7  979.97  184.19   1
   5  11   7 1215.23  185.63   1
  -5 -11  -7 1282.14  187.69   1
   5  11   8 5270.71  716.90   1
   5  11   8 2880.59  432.09   1
  -5 -11  -8 2690.97  432.16   1
   5  11   9 1629.82  445.17   1
   5  11   9 1254.04  206.13   1
  -5 -11  -9 1258.88  210.86   1
   5  11  10  251.23  283.68   1
   5  11  10  -37.72   62.72   1
   5  11  11   -3.95  335.19   1
   5  11  11  -22.67   68.21   1
  -5 -11 -11   17.72   66.58   1
   5  11  12  -15.87  364.89   1
   5  12   0  345.80  358.81   1
   5  12   1  -22.47  307.97   1
   5  12   2  313.87  283.03   1
   5  12   3 1875.56  503.38   1
   5  12   4  306.15  271.22   1
   5  12   5  934.18  339.36   1
   5  12   6 2312.94  593.94   1
   5  12   7  253.83  293.72   1
   5  12   8 1106.48  335.34   1
   5  12   8  735.08  121.44   1
  -5 -12  -8  381.86  121.28   1
   5  12   9  319.86  333.32   1
   5  12   9  479.31  105.31   1
   5  12   9  545.54  113.50   1
  -5 -12  -9  408.15  112.32   1
   5  12  10  305.00  308.85   1
   5  12  10   78.20   82.92   1
  -5 -12 -10  173.32   96.06   1
   5  13   2  369.34  347.53   1
   5  13   3  221.72  320.19   1
   5  13   4  307.36  378.44   1
   5  13   5 1551.30  468.63   1
   5  13   6 3898.51  927.89   1
   5  13   7 1703.40  495.38   1
   6  -7   0 2621.29  760.33   1
   6  -7   0 2844.00  440.08   1
  -6   7   0 2498.54  756.80   1
  -6   7   0 3004.46  433.99   1
  -6   7   0 2889.28  433.34   1
   6  -7   1 5895.04 1250.99   1
   6  -7   1 4856.83  773.34   1
  -6   7  -1 6050.90 1251.51   1
  -6   7  -1 5250.57  768.02   1
  -6   7  -1 5498.44  768.54   1
   6  -7   2 5521.34 1568.46   1
   6  -7   2 6438.74  990.11   1
  -6   7  -2 7071.65 1576.93   1
  -6   7  -2 6643.43  985.22   1
  -6   7  -2 7301.87  986.72   1
   6  -6   0  723.48  406.80   1
   6  -6   0  842.25  150.43   1
  -6   6   0  532.40  402.94   1
  -6   6   0  799.21  142.61   1
  -6   6   0  879.38  144.25   1
   6  -6   1 6962.53 1642.60   1
   6  -6   1 6560.01 1034.50   1
  -6   6  -1 5770.75 1628.99   1
  -6   6  -1 7426.55 1029.97   1
  -6   6  -1 7359.37 1030.80   1
   6  -6   210586.32 2577.24   1
   6  -6   211177.33 1637.72   1
   6  -6   2 9353.85 1639.46   1
  -6   6  -211502.73 2569.44   1
  -6   6  -212145.85 1635.94   1
  -6   6  -212335.75 1636.66   1
   6  -6   3 4886.53 1172.37   1
   6  -6   3 4894.88  715.77   1
  -6   6  -3 5679.45 1159.17   1
  -6   6  -3 4703.37  712.99   1
  -6   6  -3 5047.77  714.81   1
   6  -6   4  571.28  416.99   1
   6  -6   4  377.45   96.45   1
  -6   6  -4  660.78  372.72   1
  -6   6  -4  415.07   87.88   1
  -6   6  -4  343.17  100.61   1
   6  -6   5  256.63  492.99   1
   6  -6   5   66.72   73.42   1
  -6   6  -5   20.28  357.32   1
  -6   6  -5  191.21   76.68   1
  -6   6  -5   51.81   72.35   1
   6  -6   6 1407.97  545.30   1
   6  -6   6 1594.79  261.51   1
  -6   6  -6 1377.28  497.16   1
  -6   6  -6 1640.47  252.56   1
  -6   6  -6 1632.66  262.48   1
   6  -5   0  705.27  436.67   1
   6  -5   0  962.85  178.56   1
  -6   5   0  996.36  359.22   1
  -6   5   0 1001.09  169.34   1
  -6   5   0 1182.11  172.11   1
   6  -5   1  524.06  378.52   1
   6  -5   1  498.04  115.88   1
  -6   5  -1  401.35  292.77   1
  -6   5  -1  604.60  104.93   1
  -6   5  -1  631.62  110.05   1
   6  -5   2 6255.45 1549.57   1
   6  -5   2 6432.28  955.65   1
   6  -5   2 6485.77  960.33   1
  -6   5  -2 5299.48 1496.89   1
  -6   5  -2 6982.60  955.20   1
  -6   5  -2 6661.56  955.34   1
   6  -5   3 3172.29  894.68   1
   6  -5   3 3740.54  534.55   1
  -6   5  -3 4108.12  883.05   1
  -6   5  -3 3581.35  532.01   1
  -6   5  -3 3573.92  533.14   1
   6  -5   4  258.00  362.17   1
   6  -5   4  114.45   84.25   1
  -6   5  -4  282.63  334.60   1
  -6   5  -4  151.19   60.54   1
  -6   5  -4  139.08   72.18   1
   6  -5   5  497.13  433.54   1
   6  -5   5  943.73  169.94   1
  -6   5  -5 1044.54  401.27   1
  -6   5  -5  943.36  165.07   1
  -6   5  -5 1113.97  176.73   1
   6  -5   6  119.49  445.05   1
   6  -5   6  117.80   70.48   1
  -6   5  -6  401.31  272.64   1
  -6   5  -6  139.22   62.53   1
  -6   5  -6    7.09   79.91   1
   6  -5   7 1072.37  497.06   1
   6  -5   7 1405.69  226.67   1
  -6   5  -7 1373.77  417.14   1
  -6   5  -7 1339.78  221.87   1
  -6   5  -7 1477.87  225.60   1
   6  -5   8 1603.92  768.26   1
   6  -5   8 1945.02  303.67   1
  -6   5  -8 1514.16  569.04   1
  -6   5  -8 1886.32  298.37   1
  -6   5  -8 2070.85  306.09   1
   6  -4   0  -70.58  345.33   1
   6  -4   0  169.73   70.38   1
  -6   4   0  215.37  256.32   1
  -6   4   0  161.18   55.56   1
  -6   4   0  209.56   63.39   1
   6  -4   1 1701.91  565.84   1
   6  -4   1 1740.67  284.37   1
   6  -4   1 1813.05  290.00   1
  -6   4  -1 1512.61  488.65   1
  -6   4  -1 1935.19  283.21   1
  -6   4  -1 2027.56  284.00   1
  -6   4  -2 2777.22  737.34   1
   6  -4   2 4257.31  944.45   1
   6  -4   2 3749.46  561.78   1
   6  -4   2 3810.50  566.86   1
  -6   4  -2 3898.78  561.69   1
  -6   4  -2 3963.86  561.30   1
   6  -4   3 4459.14 1108.17   1
   6  -4   3 4622.37  669.71   1
   6  -4   3 4486.19  672.70   1
  -6   4  -3 3725.74 1052.31   1
  -6   4  -3 4723.58  667.92   1
  -6   4  -3 4611.87  668.30   1
   6  -4   4 3922.87 1088.89   1
   6  -4   4 4259.39  657.10   1
  -6   4  -4 4333.44 1037.93   1
  -6   4  -4 4813.53  655.76   1
  -6   4  -4 4464.68  656.49   1
   6  -4   5 2611.41  727.20   1
   6  -4   5 2558.87  396.85   1
  -6   4  -5 2776.71  651.04   1
  -6   4  -5 2650.07  395.08   1
  -6   4  -5 2780.36  396.64   1
   6  -4   6 2841.23  684.77   1
   6  -4   6 2292.62  360.65   1
  -6   4  -6 2707.15  598.38   1
  -6   4  -6 2439.12  358.90   1
  -6   4  -6 2416.19  360.15   1
   6  -4   7 1377.66  717.53   1
   6  -4   7 2454.38  357.32   1
  -6   4  -7 1937.97  582.59   1
  -6   4  -7 2287.34  353.50   1
  -6   4  -7 2410.20  356.84   1
   6  -4   8 1374.93  553.55   1
   6  -4   8 1457.95  198.23   1
  -6   4  -8  905.78  435.48   1
  -6   4  -8 1403.91  192.57   1
  -6   4  -8  654.15  195.31   1
   6  -4   9  899.93  598.12   1
   6  -4   9 1561.04  258.34   1
  -6   4  -9 1533.88  546.88   1
  -6   4  -9 1555.43  256.46   1
  -6   4  -9 1883.59  263.69   1
   6  -4  10 2050.48  859.45   1
   6  -4  10 2862.46  449.10   1
  -6   4 -10 3133.54  448.16   1
  -6   4 -10 3042.99  451.41   1
   6  -3   010735.78 2757.61   1
   6  -3   012451.89 1761.82   1
  -6   3   011969.88 2741.67   1
  -6   3   012113.71 1757.37   1
  -6   3   012413.02 1757.10   1
   6  -3   115542.42 3492.96   1
   6  -3   115258.13 2229.49   1
   6  -3   117187.89 2235.71   1
  -6   3  -113120.74 3478.02   1
  -6   3  -115155.71 2230.12   1
  -6   3  -115673.02 2229.73   1
   6  -3   2 9575.61 2113.73   1
   6  -3   2 9468.36 1344.20   1
   6  -3   2 9682.32 1348.01   1
  -6   3  -2 7540.23 2094.48   1
  -6   3  -2 9523.90 1343.45   1
  -6   3  -2 9055.23 1343.48   1
   6  -3   3 7056.87 1651.71   1
   6  -3   3 7248.86 1047.22   1
   6  -3   3 7401.77 1051.08   1
  -6   3  -3 5119.61 1632.97   1
  -6   3  -3 7504.92 1046.60   1
  -6   3  -3 7199.84 1046.69   1
   6  -3   4 6051.61 1606.83   1
   6  -3   4 7054.05 1018.18   1
  -6   3  -4 5514.63 1587.54   1
  -6   3  -4 6998.22 1017.18   1
  -6   3  -4 7390.19 1018.46   1
   6  -3   516176.54 3866.54   1
   6  -3   516838.30 2472.33   1
  -6   3  -515467.94 3855.66   1
  -6   3  -517714.60 2471.62   1
  -6   3  -517650.44 2472.69   1
   6  -3   618874.76 4411.90   1
   6  -3   619355.31 2820.83   1
  -6   3  -617694.56 4400.22   1
  -6   3  -620078.86 2820.28   1
  -6   3  -620170.81 2820.99   1
   6  -3   7 9406.89 2308.87   1
   6  -3   710091.80 1458.85   1
  -6   3  -7 9503.14 2275.83   1
  -6   3  -710018.03 1457.93   1
  -6   3  -710517.94 1459.43   1
   6  -3   8 1103.63  621.46   1
   6  -3   8 1758.81  266.53   1
  -6   3  -8 1486.36  456.83   1
  -6   3  -8 1758.99  265.33   1
  -6   3  -8 1734.58  267.66   1
   6  -3   9 1837.32  742.32   1
   6  -3   9 1975.33  310.10   1
  -6   3  -9 1753.69  592.01   1
  -6   3  -9 2003.27  312.07   1
  -6   3  -9 2145.37  313.12   1
   6  -3  10 6615.14 1599.53   1
   6  -3  10 6470.86  958.68   1
  -6   3 -10 6754.00 1545.65   1
  -6   3 -10 6628.46  957.94   1
  -6   3 -10 6751.50  961.22   1
   6  -3  11 8341.42 2261.10   1
   6  -3  11 9253.22 1406.32   1
  -6   3 -11 7632.28 2237.50   1
  -6   3 -1110155.30 1407.22   1
  -6   3 -1110308.84 1409.91   1
   6  -2   014262.03 4206.12   1
   6  -2   018444.60 2695.01   1
   6  -2   019269.38 2699.83   1
  -6   2   017349.48 4204.19   1
  -6   2   018858.03 2695.79   1
  -6   2   019608.49 2695.68   1
   6  -2   118000.41 4473.83   1
   6  -2   119434.59 2863.91   1
   6  -2   122300.94 2869.85   1
  -6   2  -116277.92 4466.75   1
  -6   2  -120061.68 2864.54   1
  -6   2  -119940.24 2864.48   1
   6  -2   2 7853.44 1729.06   1
   6  -2   2 7880.04 1097.32   1
   6  -2   2 7630.57 1100.96   1
  -6   2  -2 5700.64 1707.46   1
  -6   2  -2 7676.92 1096.55   1
  -6   2  -2 7510.93 1096.44   1
   6  -2   3  186.42  337.95   1
   6  -2   3  198.55   64.44   1
   6  -2   3  254.57   74.95   1
  -6   2  -3  118.05  227.47   1
  -6   2  -3  303.95   68.37   1
  -6   2  -3  252.13   62.05   1
   6  -2   4   22.37  344.26   1
   6  -2   4  195.12   63.72   1
  -6   2  -4  404.24  229.81   1
  -6   2  -4  240.33   60.33   1
  -6   2  -4  271.12   62.59   1
   6  -2   5 9707.32 2103.13   1
   6  -2   5 9433.18 1337.20   1
  -6   2  -5 7332.62 2082.13   1
  -6   2  -5 9433.92 1336.77   1
  -6   2  -5 9299.13 1337.24   1
  -6   2  -617856.38 4952.22   1
   6  -2   621805.86 4929.81   1
   6  -2   621213.40 3153.17   1
  -6   2  -622741.24 3152.87   1
  -6   2  -622891.23 3153.97   1
   6  -2   710984.00 2358.02   1
   6  -2   710147.04 1502.42   1
  -6   2  -710199.52 2339.83   1
  -6   2  -711181.96 1502.57   1
  -6   2  -710034.47 1503.40   1
   6  -2   8  352.56  317.88   1
   6  -2   8  160.77   72.55   1
  -6   2  -8  353.54  218.38   1
  -6   2  -8  253.11   65.17   1
  -6   2  -8  279.76   77.44   1
   6  -2   9  597.95  439.57   1
   6  -2   9  466.92   95.39   1
  -6   2  -9  704.33  372.43   1
  -6   2  -9  476.57   94.90   1
  -6   2  -9  457.52   98.64   1
   6  -2  10  830.31  607.96   1
   6  -2  10  978.50  178.03   1
  -6   2 -10 1156.97  436.79   1
  -6   2 -10 1117.22  177.46   1
  -6   2 -10 1088.46  180.96   1
   6  -2  11 5124.75 1356.41   1
   6  -2  11 5194.59  799.00   1
  -6   2 -11 5918.80 1324.51   1
  -6   2 -11 5817.78  799.64   1
  -6   2 -11 5395.15  802.97   1
   6  -2  12 4330.92 1319.39   1
   6  -2  12 4369.90  676.78   1
  -6   2 -12 4774.16  677.17   1
  -6   2 -12 4745.05  681.55   1
   6  -1   0 4405.40 1176.69   1
   6  -1   0 5197.73  730.42   1
   6  -1   0 5042.54  735.25   1
  -6   1   0 5206.76 1140.98   1
  -6   1   0 5014.25  731.07   1
  -6   1   0 4932.07  730.97   1
   6  -1   110816.30 2713.17   1
   6  -1   111470.54 1736.76   1
   6  -1   113492.50 1742.33   1
  -6   1  -111846.85 2707.67   1
  -6   1  -112367.77 1737.68   1
  -6   1  -111855.69 1737.14   1
   6  -1   2 5224.27 1302.26   1
   6  -1   2 5625.63  826.54   1
   6  -1   2 6124.17  830.41   1
  -6   1  -2 5580.32 1288.93   1
  -6   1  -2 5668.77  825.91   1
  -6   1  -2 5608.66  826.34   1
  -6   1  -3  629.12  162.75   1
   6  -1   3  775.89  309.16   1
   6  -1   3  706.27  119.71   1
   6  -1   3  767.21  127.25   1
  -6   1  -3  668.21  121.38   1
  -6   1  -3  641.35  118.98   1
  -6   1  -4 1738.93  328.22   1
   6  -1   4 2340.99  503.05   1
   6  -1   4 1827.08  285.29   1
  -6   1  -4 1968.10  284.39   1
  -6   1  -4 1847.20  285.19   1
   6  -1   5  418.11  276.29   1
   6  -1   5  264.14   63.60   1
  -6   1  -5  230.39  192.10   1
  -6   1  -5  226.36   61.92   1
  -6   1  -5  223.86   63.18   1
  -6   1  -6 6807.14 1700.65   1
   6  -1   6 8260.32 1153.59   1
  -6   1  -6 8010.68 1153.97   1
  -6   1  -6 7905.93 1154.48   1
   6  -1   7 5010.22 1224.08   1
   6  -1   7 5390.12  773.67   1
  -6   1  -7 4967.18 1198.31   1
  -6   1  -7 5218.70  773.83   1
  -6   1  -7 5481.37  775.42   1
   6  -1   8 1793.24  440.95   1
   6  -1   8  973.90  159.54   1
  -6   1  -8  790.28  294.23   1
  -6   1  -8  989.85  160.05   1
  -6   1  -8  898.78  162.54   1
   6  -1   9  143.22  333.76   1
   6  -1   9  310.63   86.86   1
  -6   1  -9  331.91  221.40   1
  -6   1  -9  368.93   88.98   1
  -6   1  -9  460.15   95.10   1
   6  -1  10  -30.05  389.74   1
   6  -1  10  167.28   66.28   1
  -6   1 -10   81.82  408.98   1
  -6   1 -10  171.28   62.53   1
  -6   1 -10  149.94   75.34   1
   6  -1  11 1125.40  506.89   1
   6  -1  11 1173.08  194.40   1
  -6   1 -11 1229.59  201.84   1
  -6   1 -11 1153.96  198.32   1
   6  -1  12 1432.05  592.77   1
   6  -1  12 1383.93  238.00   1
  -6   1 -12 1619.41  242.67   1
  -6   1 -12 1544.73  243.67   1
   6  -1  13  525.11  588.78   1
   6  -1  13  414.86   96.47   1
  -6   1 -13  408.62   98.76   1
  -6   1 -13  443.25  104.25   1
   6   0   0 2684.53  758.37   1
   6   0   0 3139.12  465.31   1
   6   0   0 3323.69  469.59   1
  -6   0   0 2979.81  724.68   1
  -6   0   0 3084.52  465.29   1
  -6   0   0 3235.15  465.05   1
   6   0   117600.90 4376.53   1
   6   0   119195.06 2803.66   1
   6   0   121732.01 2808.66   1
  -6   0  -115988.58 4370.31   1
  -6   0  -119385.64 2804.31   1
  -6   0  -119649.08 2804.02   1
   6   0   217956.32 4360.84   1
   6   0   219168.85 2790.89   1
   6   0   221409.48 2795.46   1
  -6   0  -216775.71 4351.24   1
  -6   0  -219213.91 2791.67   1
  -6   0  -219522.15 2791.37   1
   6   0   3 4026.06  966.03   1
   6   0   3 3971.05  607.94   1
   6   0   3 4551.80  612.15   1
  -6   0  -3 2996.24  942.77   1
  -6   0  -3 4039.90  607.89   1
  -6   0  -3 4446.69  608.97   1
   6   0   4 1685.42  442.77   1
   6   0   4 1594.25  235.18   1
  -6   0  -4 1547.04  234.80   1
  -6   0  -4 1449.38  234.93   1
   6   0   5 5571.86 1186.17   1
   6   0   5 5191.46  751.60   1
  -6   0  -5 3847.02 1164.90   1
  -6   0  -5 5355.68  751.85   1
  -6   0  -5 5153.61  752.90   1
   6   0   6 8528.17 2078.88   1
   6   0   6 9358.15 1330.67   1
  -6   0  -6 7334.96 2066.83   1
  -6   0  -6 9708.85 1331.67   1
  -6   0  -6 9074.06 1332.16   1
   6   0   7 8682.17 2024.75   1
   6   0   7 8820.18 1294.71   1
  -6   0  -7 8025.22 2011.58   1
  -6   0  -7 9352.62 1295.42   1
  -6   0  -7 9057.66 1297.59   1
   6   0   8 6181.12 1534.63   1
   6   0   8 6609.33  977.04   1
  -6   0  -8 6191.79 1525.12   1
  -6   0  -8 6952.03  977.54   1
  -6   0  -8 6917.80  980.78   1
   6   0   9 6339.00 1498.56   1
   6   0   9 6514.00  952.02   1
  -6   0  -9 6501.98 1486.98   1
  -6   0  -9 6681.88  952.96   1
  -6   0  -9 6618.49  955.27   1
   6   0  10 5171.54 1357.94   1
   6   0  10 6207.74  860.64   1
  -6   0 -10 5856.71  861.19   1
  -6   0 -10 5780.53  863.64   1
   6   0  11 3247.68  813.95   1
   6   0  11 3053.00  457.61   1
  -6   0 -11 3294.33  460.49   1
  -6   0 -11 2879.87  461.21   1
   6   0  12 1489.29  567.89   1
   6   0  12 1685.43  277.71   1
  -6   0 -12 1948.38  282.55   1
  -6   0 -12 1819.31  284.17   1
   6   0  13  364.49  644.63   1
   6   0  13 1087.35  189.06   1
  -6   0 -13 1295.94  195.35   1
  -6   0 -13 1184.63  197.99   1
   6   1   011881.66 3245.52   1
   6   1   015230.05 2081.95   1
   6   1   014150.97 2086.40   1
  -6  -1   014230.29 2082.78   1
  -6  -1   014759.22 2082.36   1
   6   1   117126.55 3985.24   1
   6   1   118584.90 2554.39   1
   6   1   118880.55 2558.85   1
  -6  -1  -116288.87 3982.10   1
  -6  -1  -117087.83 2555.00   1
  -6  -1  -117598.00 2555.24   1
   6   1   213972.12 2642.57   1
   6   1   211312.85 1692.43   1
   6   1   212976.65 1697.17   1
  -6  -1  -210720.57 2636.41   1
  -6  -1  -211848.61 1694.12   1
  -6  -1  -211474.84 1693.06   1
   6   1   320346.22 4876.89   1
   6   1   321737.92 3124.69   1
   6   1   324009.92 3128.53   1
  -6  -1  -319875.48 4874.73   1
  -6  -1  -320245.29 3125.44   1
  -6  -1  -322654.26 3125.69   1
   6   1   428103.25 6351.81   1
   6   1   428778.03 4067.77   1
  -6  -1  -427759.60 6350.20   1
  -6  -1  -427548.25 4068.61   1
  -6  -1  -429550.82 4068.80   1
   6   1   527952.07 6739.37   1
   6   1   529695.23 4315.99   1
  -6  -1  -530943.57 4317.22   1
  -6  -1  -530743.19 4317.67   1
   6   1   611944.64 2702.32   1
   6   1   612203.89 1733.01   1
  -6  -1  -610053.17 2697.32   1
  -6  -1  -612368.14 1734.25   1
   6   1   7 4579.03 1066.55   1
   6   1   7 4365.32  677.36   1
  -6  -1  -7 4797.63  678.44   1
  -6  -1  -7 4892.53  681.25   1
   6   1   8 5634.67 1280.14   1
   6   1   8 5724.41  816.56   1
  -6  -1  -8 5894.03  818.29   1
  -6  -1  -8 5241.30  818.99   1
   6   1   915717.98 3784.73   1
   6   1   917226.22 2426.95   1
  -6  -1  -917472.85 2427.84   1
  -6  -1  -916291.50 2429.93   1
   6   1  1024058.37 5054.90   1
   6   1  1023099.63 3236.06   1
  -6  -1 -1023651.16 3237.63   1
  -6  -1 -1020742.06 3239.35   1
   6   1  1111699.97 2464.14   1
   6   1  1111030.49 1571.80   1
  -6  -1 -1111372.98 1575.44   1
  -6  -1 -1110284.23 1575.56   1
   6   1  12  793.73  396.85   1
   6   1  12  754.89  145.43   1
  -6  -1 -12  885.74  147.99   1
  -6  -1 -12  828.31  156.54   1
   6   1  13  253.61  469.81   1
   6   1  13  513.08  120.37   1
  -6  -1 -13  893.64  129.64   1
  -6  -1 -13  656.34  130.62   1
   6   1  14 2104.18  350.48   1
  -6  -1 -14 2455.41  355.93   1
  -6  -1 -14 2466.88  358.67   1
   6   2   016535.08 3912.65   1
   6   2   017928.05 2508.05   1
   6   2   018241.04 2512.65   1
  -6  -2   016822.86 2509.17   1
   6   2   1 5215.65 1278.01   1
   6   2   1 5748.12  816.51   1
   6   2   1 6165.49  821.56   1
  -6  -2  -1 5286.83  817.04   1
  -6  -2  -1 5600.70  816.56   1
   6   2   2  199.42  228.41   1
   6   2   2  237.58   64.52   1
   6   2   2  358.90   73.29   1
  -6  -2  -2  261.46   64.87   1
  -6  -2  -2  316.64   68.31   1
   6   2   3  897.53  271.38   1
   6   2   3  729.57  127.71   1
  -6  -2  -3  795.70  128.20   1
  -6  -2  -3  781.41  130.36   1
   6   2   411380.12 2793.81   1
   6   2   412384.94 1793.81   1
  -6  -2  -412654.48 1794.91   1
  -6  -2  -412782.67 1795.52   1
   6   2   527412.98 5981.38   1
   6   2   526723.75 3830.90   1
  -6  -2  -527349.50 3832.39   1
  -6  -2  -526605.10 3832.52   1
   6   2   6 9189.62 2195.26   1
   6   2   6 9665.09 1409.07   1
  -6  -2  -6 9750.38 1411.28   1
  -6  -2  -610240.74 1412.45   1
   6   2   7  427.67  250.42   1
   6   2   7  290.35   59.32   1
  -6  -2  -7  140.03   63.64   1
  -6  -2  -7  183.69   63.46   1
   6   2   8  542.04  268.10   1
   6   2   8  376.05   80.65   1
  -6  -2  -8  412.55   89.35   1
  -6  -2  -8  397.20   84.59   1
   6   2   9 2036.60  564.77   1
   6   2   9 2309.08  339.85   1
  -6  -2  -9 2247.70  342.00   1
  -6  -2  -9 2242.01  342.78   1
   6   2  1011088.55 2723.21   1
   6   2  1012302.35 1742.30   1
  -6  -2 -1012440.84 1745.32   1
  -6  -2 -1011862.42 1745.84   1
   6   2  11 8071.15 1625.01   1
   6   2  11 7050.16 1026.18   1
  -6  -2 -11 7415.33 1029.96   1
  -6  -2 -11 6712.92 1029.95   1
   6   2  12  558.67  310.69   1
   6   2  12  383.90   78.97   1
  -6  -2 -12  313.55   83.35   1
  -6  -2 -12  339.57   84.04   1
   6   2  13  607.77  452.20   1
   6   2  13  471.88  118.33   1
  -6  -2 -13  734.77  128.52   1
  -6  -2 -13  622.78  132.07   1
   6   2  14 -179.45  353.80   1
   6   2  14  318.87  397.77   1
   6   2  14  116.34   58.51   1
  -6  -2 -14   97.87   87.68   1
  -6  -2 -14   93.96   72.88   1
   6   3   014808.67 2572.08   1
   6   3   011712.15 1653.03   1
  -6  -3   011021.92 1649.22   1
   6   3   1 4439.25  824.34   1
   6   3   1 3550.43  521.11   1
   6   3   1 3662.28  525.49   1
  -6  -3  -1 3423.82  522.25   1
  -6  -3  -1 3606.97  522.16   1
   6   3   2 4550.59  944.51   1
   6   3   2 4398.56  602.04   1
  -6  -3  -2 4021.61  603.35   1
  -6  -3  -2 3941.77  602.52   1
   6   3   3 4002.64  889.92   1
  -6  -3  -3 3803.18  568.54   1
  -6  -3  -3 3982.74  568.23   1
   6   3   4 3092.17  667.35   1
   6   3   4 2857.32  419.01   1
  -6  -3  -4 2874.41  421.34   1
  -6  -3  -4 2788.78  420.41   1
   6   3   518657.38 3748.26   1
   6   3   516608.30 2403.32   1
  -6  -3  -517541.31 2406.28   1
  -6  -3  -516167.35 2405.99   1
   6   3   6 8623.07 2143.49   1
   6   3   6 9466.31 1377.46   1
  -6  -3  -6 9491.19 1380.33   1
  -6  -3  -610058.73 1380.97   1
   6   3   7  279.33  211.25   1
   6   3   7  155.34   52.43   1
  -6  -3  -7  181.97   70.46   1
  -6  -3  -7  188.13   55.50   1
   6   3   8 2553.11  672.82   1
   6   3   8 2879.36  424.88   1
  -6  -3  -8 2883.87  428.07   1
  -6  -3  -8 2901.26  428.49   1
   6   3   9  142.64  216.05   1
   6   3   9  130.33   53.02   1
  -6  -3  -9  157.55   66.68   1
  -6  -3  -9  175.94   64.19   1
   6   3  10 3767.91 1102.04   1
   6   3  10 5205.70  707.01   1
  -6  -3 -10 5010.64  711.64   1
  -6  -3 -10 4438.44  709.48   1
   6   3  11 4525.10  834.10   1
   6   3  11 3435.22  498.57   1
  -6  -3 -11 3441.06  502.93   1
  -6  -3 -11 3053.57  502.84   1
   6   3  12 1072.48  429.67   1
   6   3  12 1050.31  176.44   1
  -6  -3 -12 1187.21  181.39   1
  -6  -3 -12 1036.46  180.37   1
   6   3  13  243.39  374.46   1
   6   3  13   29.38  379.31   1
   6   3  13   95.99   56.47   1
  -6  -3 -13   49.75   91.31   1
  -6  -3 -13   49.82   82.34   1
   6   3  14  220.91  366.39   1
   6   3  14  211.26  346.82   1
   6   3  14   73.98   59.19   1
  -6  -3 -14  136.57   67.28   1
  -6  -3 -14   75.69   72.52   1
   6   4   022747.72 6152.65   1
   6   4   027262.90 3946.11   1
  -6  -4   027827.15 3943.33   1
  -6  -4   028473.65 3942.33   1
   6   4   118185.29 3836.31   1
   6   4   117725.46 2458.82   1
   6   4   116980.52 2463.11   1
  -6  -4  -116151.43 2460.58   1
  -6  -4  -117741.74 2459.74   1
   6   4   2 4148.43  879.07   1
   6   4   2 4067.78  559.73   1
  -6  -4  -2 3868.99  561.30   1
  -6  -4  -2 3557.37  559.87   1
   6   4   3 2628.31  538.42   1
   6   4   3 2311.43  335.08   1
  -6  -4  -3 2102.72  337.17   1
  -6  -4  -3 2284.47  336.72   1
   6   4   4 4007.33  873.93   1
   6   4   4 4074.69  558.75   1
  -6  -4  -4 3696.09  561.20   1
  -6  -4  -4 3661.00  560.20   1
   6   4   516168.91 4120.14   1
   6   4   518764.01 2631.83   1
  -6  -4  -518161.94 2634.98   1
  -6  -4  -518682.13 2634.70   1
   6   4   613961.73 3329.75   1
   6   4   614846.71 2137.36   1
  -6  -4  -615425.85 2141.14   1
  -6  -4  -614869.24 2139.98   1
   6   4   712632.30 2714.62   1
   6   4   712341.88 1742.55   1
  -6  -4  -712126.23 1746.75   1
  -6  -4  -711919.17 1745.87   1
   6   4   8 5645.89 1219.57   1
   6   4   8 5601.40  781.96   1
  -6  -4  -8 5203.68  786.85   1
  -6  -4  -8 5268.16  784.82   1
   6   4   9 7335.57 1610.40   1
   6   4   9 7394.37 1034.38   1
  -6  -4  -9 6945.52 1039.77   1
  -6  -4  -9 7063.72 1037.27   1
   6   4  10 6542.59 1312.24   1
   6   4  10 6008.41  839.85   1
  -6  -4 -10 5347.04  844.63   1
  -6  -4 -10 5783.68  843.64   1
   6   4  11 5077.35 1149.44   1
   6   4  11 6580.59 1160.56   1
   6   4  11 5077.35  726.55   1
  -6  -4 -11 4614.23  729.71   1
   6   4  12 2476.11  712.33   1
   6   4  12 4244.66  711.34   1
   6   4  12 2793.32  417.31   1
  -6  -4 -12 2974.45  419.95   1
  -6  -4 -12 2481.39  420.25   1
   6   4  13 4887.56 1068.06   1
   6   4  13 6089.31 1106.38   1
   6   4  13 3349.38  668.21   1
  -6  -4 -13 5965.94  673.13   1
  -6  -4 -13 4146.46  673.18   1
   6   4  14 2230.85  908.27   1
   6   4  14 3759.27  961.46   1
   6   4  14 3112.45  563.73   1
  -6  -4 -14 4753.06  566.95   1
  -6  -4 -14 3878.12  569.74   1
   6   4  15 1690.63  720.38   1
   6   4  15 1373.07  752.65   1
   6   4  15 1981.27  347.01   1
  -6  -4 -15 2703.45  348.50   1
  -6  -4 -15 2335.57  352.76   1
   6   5   021918.43 4440.98   1
   6   5   018213.86 4439.37   1
  -6  -5   019384.04 2847.76   1
  -6  -5   020402.56 2847.06   1
   6   5   121853.83 4632.92   1
   6   5   123753.30 4634.51   1
  -6  -5  -118416.55 2970.76   1
  -6  -5  -122516.07 2970.13   1
   6   5   218852.80 3939.32   1
   6   5   217352.87 3939.71   1
   6   5   217798.77 2526.10   1
  -6  -5  -217999.90 2528.71   1
  -6  -5  -217277.49 2526.46   1
   6   5   314185.81 3391.86   1
   6   5   314528.92 2176.19   1
  -6  -5  -315627.74 2180.02   1
  -6  -5  -315917.92 2177.56   1
   6   5   419505.06 4336.88   1
   6   5   419323.93 2780.39   1
  -6  -5  -419944.31 2784.46   1
  -6  -5  -419359.82 2781.95   1
   6   5   516624.72 3184.79   1
   6   5   513106.83 2042.67   1
  -6  -5  -512797.13 2046.74   1
  -6  -5  -516711.37 2046.40   1
   6   5   610142.04 2021.61   1
   6   5   6 9650.63 1337.64   1
  -6  -5  -6 8976.15 1342.10   1
  -6  -5  -6 9066.01 1340.34   1
   6   5   7 9040.03 2062.19   1
   6   5   710223.53 2063.67   1
   6   5   7 9260.57 1325.53   1
  -6  -5  -7 8958.11 1331.92   1
  -6  -5  -7 9287.21 1328.57   1
   6   5   812709.00 3250.83   1
   6   5   815062.75 3254.10   1
   6   5   815564.48 2088.14   1
  -6  -5  -813338.02 2094.28   1
  -6  -5  -814629.42 2090.82   1
   6   5   916468.38 4578.36   1
   6   5   921320.96 4582.85   1
   6   5   921955.69 2938.45   1
  -6  -5  -918398.50 2944.04   1
  -6  -5  -921295.61 2941.87   1
   6   5  10 5051.95 1589.85   1
   6   5  10 7534.55 1600.15   1
   6   5  10 7507.06 1027.09   1
  -6  -5 -10 6699.11 1031.72   1
  -6  -5 -10 7349.34 1029.97   1
   6   5  11 1948.18  503.31   1
   6   5  11 2745.36  513.67   1
   6   5  11 1644.09  289.83   1
  -6  -5 -11 1950.92  293.58   1
  -6  -5 -11 2050.53  294.13   1
   6   5  12  659.90  353.38   1
   6   5  12 1297.65  367.99   1
   6   5  12  804.98  146.65   1
  -6  -5 -12  876.85  145.67   1
   6   5  13 4671.06  808.76   1
   6   5  13 5334.51  872.81   1
   6   5  13 2923.68  486.79   1
   6   5  14 6602.50 1760.80   1
   6   5  1410063.03 1795.53   1
   6   5  14 5830.65 1123.89   1
  -6  -5 -14 9868.14 1130.02   1
   6   5  15 2067.88  918.98   1
   6   5  15 2367.25 1034.96   1
   6   5  15 3318.32  568.06   1
  -6  -5 -15 4915.46  574.07   1
   6   6   0 2557.47  477.42   1
   6   6   0 2054.22  496.16   1
  -6  -6   0 1906.83  296.47   1
  -6  -6   0 1949.68  294.45   1
   6   6   1  300.23  166.06   1
   6   6   1  118.84  189.53   1
  -6  -6  -1  168.89   61.09   1
  -6  -6  -1  205.71   50.69   1
   6   6   2 2632.73  558.74   1
   6   6   2 2296.88  559.22   1
   6   6   2 2368.44  346.85   1
  -6  -6  -2 2195.88  351.38   1
  -6  -6  -2 2394.23  348.48   1
   6   6   313204.81 2910.41   1
   6   6   312818.51 2909.55   1
   6   6   312872.91 1866.93   1
  -6  -6  -311327.81 1871.37   1
  -6  -6  -314507.90 1868.39   1
   6   6   416564.79 3417.10   1
   6   6   416783.02 3418.71   1
   6   6   416453.58 2192.76   1
  -6  -6  -412973.37 2196.89   1
   6   6   5 2261.49  525.15   1
   6   6   5 2536.96  521.59   1
  -6  -6  -5 1691.70  331.27   1
  -6  -6  -5 2472.30  329.33   1
   6   6   6  213.67  195.32   1
   6   6   6  395.00  220.41   1
   6   6   6  455.52   87.36   1
  -6  -6  -6  388.57  103.82   1
  -6  -6  -6  514.28   92.77   1
   6   6   7  666.53  226.12   1
   6   6   7  703.85  239.80   1
   6   6   7  658.05  113.77   1
  -6  -6  -7  556.39  129.61   1
  -6  -6  -7  712.91  123.97   1
   6   6   8 3647.78 1172.30   1
   6   6   8 4931.35 1179.31   1
   6   6   8 5593.66  757.95   1
  -6  -6  -8 4907.91  765.66   1
  -6  -6  -8 5350.59  760.50   1
   6   6   9 9509.50 2856.26   1
   6   6   912630.48 2860.58   1
   6   6   913695.76 1837.12   1
  -6  -6  -912398.04 1843.02   1
  -6  -6  -912765.75 1839.79   1
   6   6  10 5460.42 1184.30   1
   6   6  10 5991.82 1198.15   1
   6   6  10 5097.88  761.74   1
   6   6  11 -110.40  237.58   1
   6   6  11  -81.64  268.09   1
   6   6  11  153.43   64.30   1
  -6  -6 -11  190.39   73.52   1
   6   6  12  849.88  356.44   1
   6   6  12  909.39  351.01   1
   6   6  12  817.02  160.96   1
  -6  -6 -12 1031.31  162.26   1
   6   6  13  137.37  224.25   1
   6   6  13  311.66  319.47   1
   6   6  13  129.03   69.36   1
  -6  -6 -13  203.47   83.78   1
   6   6  14 1479.51  554.74   1
   6   6  14 2489.16  645.02   1
   6   6  14 1501.77  347.25   1
  -6  -6 -14 3273.09  358.84   1
   6   7   0  642.68  208.37   1
   6   7   0  593.97  255.99   1
   6   7   1 1695.49  422.38   1
   6   7   1 1827.11  444.75   1
   6   7   2 1152.42  281.76   1
   6   7   2 1247.83  301.71   1
  -6  -7  -2  904.42  151.72   1
   6   7   3 2369.71  554.41   1
   6   7   3 2370.66  564.28   1
   6   7   3 2396.02  347.71   1
  -6  -7  -3 2299.43  347.82   1
   6   7   415342.59 3344.66   1
   6   7   415772.36 3345.75   1
   6   7   414869.35 2145.00   1
   6   7   5 5399.82 1219.28   1
   6   7   5 5544.26  782.09   1
  -6  -7  -5 5239.58  785.14   1
   6   7   6  351.68  217.07   1
   6   7   6  232.49  234.39   1
  -6  -7  -6  389.80   98.22   1
  -6  -7  -6  469.85   88.12   1
   6   7   7 2777.01  425.80   1
   6   7   7 2320.84  528.53   1
   6   7   7 2103.18  327.59   1
  -6  -7  -7 2179.19  332.13   1
   6   7   8  605.49  244.15   1
   6   7   8  381.90  256.84   1
   6   7   8  737.27  118.76   1
  -6  -7  -8  464.58  118.87   1
  -6  -7  -8  679.69  122.08   1
   6   7   9 4785.51 1245.47   1
   6   7   9 6459.33 1250.20   1
   6   7   9 5788.65  801.96   1
  -6  -7  -9 4794.87  804.88   1
  -6  -7  -9 5854.93  805.02   1
   6   7  10 4220.09 1178.46   1
   6   7  10 6226.82 1188.27   1
  -6  -7 -10 5215.79  763.06   1
   6   7  11  273.76  212.17   1
   6   7  11  358.89  329.67   1
   6   7  11  492.25  103.36   1
  -6  -7 -11  411.82  108.26   1
   6   7  12  105.99  204.97   1
   6   7  12  -85.11  396.04   1
   6   7  12  105.89   64.42   1
  -6  -7 -12  158.86   95.60   1
   6   7  13  248.69  272.22   1
   6   7  13  144.55  315.95   1
   6   7  13  -16.27   61.79   1
  -6  -7 -13  108.14   76.67   1
   6   7  14  862.62  395.14   1
   6   7  14  922.76  415.77   1
   6   7  14  534.41  162.53   1
  -6  -7 -14 1390.85  173.47   1
   6   8   011257.99 2511.18   1
   6   8   1  856.22  284.10   1
   6   8   2  589.52  209.94   1
   6   8   3 6356.07 1422.91   1
   6   8   418020.72 4062.65   1
   6   8   418529.42 2604.41   1
  -6  -8  -417729.52 2606.38   1
  -6  -8  -418512.69 2605.24   1
   6   8   517153.98 3845.75   1
   6   8   517991.42 2466.83   1
  -6  -8  -516452.57 2468.95   1
   6   8   6 5117.82 1197.81   1
   6   8   6 5504.42  767.74   1
  -6  -8  -6 5042.19  770.69   1
  -6  -8  -6 5353.44  771.24   1
   6   8   7 2123.73  512.55   1
   6   8   7 2290.62  323.28   1
  -6  -8  -7 2007.46  328.54   1
  -6  -8  -7 2133.57  327.11   1
   6   8   8 3897.67 1136.47   1
   6   8   8 5726.77 1152.37   1
   6   8   8 5178.14  734.79   1
  -6  -8  -8 5014.01  739.15   1
  -6  -8  -8 5059.85  737.93   1
   6   8   9 7596.68 1861.07   1
   6   8   9 9304.37 1872.84   1
   6   8   9 8503.22 1198.50   1
  -6  -8  -9 7892.41 1202.63   1
  -6  -8  -9 8514.59 1201.18   1
   6   8  10 6525.59 1832.92   1
   6   8  10 8623.80 1181.70   1
  -6  -8 -10 7992.75 1184.33   1
   6   8  11 3544.22  986.49   1
   6   8  11 5108.63 1002.52   1
   6   8  11 4605.68  635.87   1
  -6  -8 -11 4022.13  637.80   1
   6   8  12 2468.51  735.71   1
   6   8  12 4382.93  787.25   1
   6   8  12 2889.01  460.09   1
  -6  -8 -12 3239.71  466.85   1
   6   8  13 3084.65  688.74   1
   6   8  13 3792.90  750.55   1
   6   8  13 2296.08  416.15   1
  -6  -8 -13 3158.64  421.97   1
   6   8  14 1576.54  547.78   1
   6   8  14 2951.65  561.62   1
   6   8  14  621.86  244.73   1
  -6  -8 -14 2395.78  256.24   1
   6   9   011885.29 2649.72   1
   6   9   1 8007.50 1791.69   1
   6   9   2 6222.37 1403.52   1
   6   9   3 8699.84 1945.55   1
   6   9   4 8807.53 1969.75   1
   6   9   5 8975.79 2006.54   1
   6   9   6 8721.72 1540.44   1
   6   9   6 7273.50  986.14   1
  -6  -9  -6 6221.33  985.13   1
   6   9   711782.04 2164.76   1
   6   9   7 9983.47 1387.33   1
  -6  -9  -7 8578.71 1387.24   1
  -6  -9  -710345.80 1391.41   1
   6   9   8 9045.41 2115.96   1
   6   9   8 9791.13 1358.99   1
  -6  -9  -8 8959.47 1359.83   1
  -6  -9  -8 9731.40 1362.51   1
   6   9   9 4448.02 1010.97   1
   6   9   9 4314.81  644.94   1
  -6  -9  -9 4485.00  647.57   1
  -6  -9  -9 4449.15  648.10   1
   6   9  10 1688.57  454.56   1
   6   9  10 1932.60  476.33   1
   6   9  10 1725.12  273.43   1
  -6  -9 -10 1779.30  279.53   1
   6   9  11 1001.41  385.86   1
   6   9  11 1646.08  501.77   1
   6   9  11 1204.53  205.71   1
  -6  -9 -11 1343.66  218.81   1
   6   9  12 3824.34  901.10   1
   6   9  12 4001.87  957.02   1
   6   9  12 3563.08  555.27   1
  -6  -9 -12 3920.09  559.62   1
   6   9  13 5220.84 1037.38   1
   6   9  13 6979.12 1112.47   1
   6   9  13 3556.52  643.04   1
  -6  -9 -13 4804.32  647.03   1
   6  10   0  821.74  320.46   1
   6  10   1 1529.79  389.47   1
   6  10   2 2346.48  553.25   1
   6  10   3 3479.01  796.94   1
   6  10   4 1165.29  314.97   1
   6  10   5  140.13  183.85   1
   6  10   6   18.51  187.26   1
   6  10   7 2280.57  551.54   1
  -6 -10  -7 2308.85  349.03   1
   6  10   8 4774.45 1002.23   1
   6  10   8 4390.82  640.75   1
  -6 -10  -8 4337.16  643.17   1
   6  10   9 1545.07  416.21   1
   6  10   9 1650.66  252.75   1
  -6 -10  -9 1556.31  263.12   1
  -6 -10  -9 1628.30  257.09   1
   6  10  10   57.30  210.64   1
   6  10  10  227.48   78.04   1
  -6 -10 -10  168.03   98.44   1
   6  10  11  541.17  312.99   1
   6  10  11 1009.49  432.03   1
   6  10  11  468.66  111.04   1
  -6 -10 -11  438.56  128.86   1
   6  10  12  269.80  308.46   1
   6  10  12  354.93  454.30   1
   6  10  12  229.54   91.54   1
  -6 -10 -12  281.71  114.42   1
   6  11   0  973.09  399.74   1
   6  11   1  105.56  299.73   1
   6  11   2 4264.37  974.45   1
   6  11   3 5443.87 1229.93   1
   6  11   4 1264.39  341.58   1
   6  11   5  754.12  272.51   1
   6  11   6  513.00  248.51   1
   6  11   7 1046.12  311.69   1
   6  11   8 4621.24  894.21   1
   6  11   8 3830.06  555.83   1
  -6 -11  -8 2973.46  555.53   1
  -6 -11  -8 4687.92  561.78   1
   6  11   9 2548.96  608.72   1
   6  11   9 2494.21  377.97   1
  -6 -11  -9 2485.23  381.38   1
   6  11  10  170.41  261.17   1
   6  11  10   17.75   72.05   1
  -6 -11 -10   25.90   60.32   1
   6  11  11   53.35  298.65   1
   6  11  11  179.83   88.97   1
  -6 -11 -11  112.83   72.68   1
   6  12   0  147.98  411.52   1
   6  12   1  391.58  323.61   1
   6  12   2 4009.75  951.31   1
   6  12   311254.64 2526.31   1
   6  12   4 9544.61 2154.03   1
   6  12   5 2321.16  587.81   1
   6  12   6 1210.97  382.38   1
   6  12   7 1767.61  484.80   1
   6  12   8 5585.81 1281.22   1
   6  12   9 6137.33  756.35   1
   6  12   9 2388.78  443.97   1
  -6 -12  -9 2828.21  445.37   1
  -6 -12  -9 3559.73  455.09   1
   7  -5   0  552.07  444.00   1
   7  -5   0  273.12   86.78   1
  -7   5   0  387.18  308.87   1
  -7   5   0  283.15   76.68   1
  -7   5   0  293.00   80.27   1
   7  -5   1  700.03  433.25   1
   7  -5   1  449.57  125.35   1
  -7   5  -1   51.44  316.48   1
  -7   5  -1  613.28  116.09   1
  -7   5  -1  639.52  111.75   1
   7  -5   2  372.63  410.02   1
   7  -5   2  248.82   91.78   1
  -7   5  -2  208.79  303.11   1
  -7   5  -2  407.99   84.42   1
  -7   5  -2  398.38   88.21   1
   7  -5   3  405.56  406.59   1
   7  -5   3  512.30  112.14   1
  -7   5  -3  295.68  306.55   1
  -7   5  -3  490.46   98.75   1
  -7   5  -3  484.89  109.35   1
   7  -5   4  301.73  497.06   1
   7  -5   4  439.12  104.30   1
  -7   5  -4  263.04  296.66   1
  -7   5  -4  372.93   92.16   1
  -7   5  -4  516.47  105.37   1
   7  -5   5  229.21  458.26   1
   7  -5   5  961.43  173.83   1
  -7   5  -5  723.48  365.82   1
  -7   5  -5  988.47  174.34   1
  -7   5  -5 1136.63  174.19   1
   7  -4   0  226.20  385.66   1
   7  -4   0  272.51   93.80   1
  -7   4   0  396.22  286.23   1
  -7   4   0  356.88   80.85   1
  -7   4   0  336.61   82.24   1
   7  -4   1  286.74  385.08   1
   7  -4   1   26.75   61.72   1
  -7   4  -1  298.65  270.47   1
  -7   4  -1   25.41   53.98   1
  -7   4  -1   -0.22   58.61   1
   7  -4   2 1098.75  540.42   1
   7  -4   2 1524.89  246.47   1
   7  -4   2 1343.63  248.03   1
  -7   4  -2  797.21  439.42   1
  -7   4  -2 1732.60  242.62   1
  -7   4  -2 1658.72  246.27   1
   7  -4   3 3673.55 1108.22   1
   7  -4   3 4272.37  644.47   1
  -7   4  -3 2430.40 1012.52   1
  -7   4  -3 4420.76  640.61   1
  -7   4  -3 4711.07  645.07   1
   7  -4   4  979.68  494.74   1
   7  -4   4 1048.79  186.77   1
  -7   4  -4  774.07  365.12   1
  -7   4  -4 1102.04  182.41   1
  -7   4  -4 1283.99  187.84   1
   7  -4   5 1015.57  474.29   1
   7  -4   5  708.09  142.09   1
  -7   4  -5  686.30  320.44   1
  -7   4  -5  770.52  138.21   1
  -7   4  -5  880.84  143.53   1
   7  -4   6  391.41  554.53   1
   7  -4   6  644.24  129.98   1
  -7   4  -6  489.25  314.22   1
  -7   4  -6  703.85  126.62   1
  -7   4  -6  741.75  130.58   1
   7  -4   7  523.32  430.56   1
   7  -4   7  370.29   93.50   1
  -7   4  -7  298.75  295.64   1
  -7   4  -7  388.01   86.57   1
  -7   4  -7  311.01   91.24   1
   7  -3   0  133.62  456.03   1
   7  -3   0  382.39   98.47   1
  -7   3   0  175.08  262.61   1
  -7   3   0  272.54   78.02   1
  -7   3   0  361.19   78.48   1
   7  -3   1  887.73  557.68   1
   7  -3   1  574.35  122.90   1
   7  -3   1  712.81  131.38   1
  -7   3  -1  797.37  302.11   1
  -7   3  -1  668.11  119.57   1
  -7   3  -1  806.37  124.39   1
   7  -3   2 1701.35  572.26   1
   7  -3   2 1201.00  184.39   1
   7  -3   2 1106.81  196.03   1
  -7   3  -2  824.20  361.59   1
  -7   3  -2 1173.51  182.85   1
  -7   3  -2 1116.80  182.99   1
   7  -3   3 7702.56 1655.40   1
   7  -3   3 7538.57 1032.80   1
   7  -3   3 7238.22 1036.40   1
  -7   3  -3 5195.89 1613.30   1
  -7   3  -3 6510.76 1031.10   1
  -7   3  -3 7581.74 1032.25   1
   7  -3   4 4300.13 1202.25   1
   7  -3   4 4598.48  690.12   1
  -7   3  -4 2915.73 1082.82   1
  -7   3  -4 4931.03  688.61   1
  -7   3  -4 4871.00  690.35   1
   7  -3   5  217.29  562.78   1
   7  -3   5   66.92   64.03   1
  -7   3  -5  111.05  257.55   1
  -7   3  -5   88.39   71.16   1
  -7   3  -5   83.68   65.52   1
   7  -3   6 1260.97  538.36   1
   7  -3   6 1127.52  179.68   1
  -7   3  -6  690.02  362.89   1
  -7   3  -6 1142.35  178.03   1
  -7   3  -6  993.70  179.15   1
   7  -3   7   54.85  612.38   1
   7  -3   7   63.14   70.46   1
  -7   3  -7   95.19  298.60   1
  -7   3  -7   76.72   59.39   1
  -7   3  -7   76.98   64.87   1
   7  -3   8 2031.63  760.32   1
   7  -3   8 2468.55  360.40   1
  -7   3  -8 1708.27  615.70   1
  -7   3  -8 2295.94  357.10   1
  -7   3  -8 2434.63  364.31   1
   7  -3   9 2753.72  843.31   1
   7  -3   9 2855.29  354.62   1
  -7   3  -9 2658.47  697.20   1
  -7   3  -9 2746.52  351.36   1
  -7   3  -9 1211.73  350.99   1
   7  -2   0 1373.62  604.45   1
   7  -2   0 2447.15  345.67   1
  -7   2   0 2115.00  565.87   1
  -7   2   0 2036.30  337.34   1
  -7   2   0 2406.29  338.50   1
   7  -2   1 5623.94 1378.84   1
   7  -2   1 6202.61  866.79   1
   7  -2   1 5825.38  871.72   1
  -7   2  -1 5520.14 1359.25   1
  -7   2  -1 5817.87  866.01   1
  -7   2  -1 6122.63  867.02   1
   7  -2   2 2360.39  655.18   1
   7  -2   2 2535.69  377.38   1
   7  -2   2 2596.59  383.38   1
  -7   2  -2 2130.14  619.65   1
  -7   2  -2 2484.72  376.74   1
  -7   2  -2 2600.23  377.11   1
   7  -2   3  613.78  357.85   1
   7  -2   3  499.20  103.38   1
   7  -2   3  477.33  108.39   1
  -7   2  -3  505.49  277.45   1
  -7   2  -3  619.35   99.41   1
  -7   2  -3  542.36   99.45   1
   7  -2   4  350.22  353.02   1
   7  -2   4  450.73   91.87   1
  -7   2  -4  313.84  258.03   1
  -7   2  -4  463.90   93.68   1
  -7   2  -4  505.35   90.50   1
   7  -2   5  434.27  382.49   1
   7  -2   5  768.34  133.57   1
  -7   2  -5  654.26  278.25   1
  -7   2  -5  771.81  132.21   1
  -7   2  -5  843.19  133.50   1
   7  -2   6 2782.91  750.09   1
   7  -2   6 2981.37  439.46   1
  -7   2  -6 2506.46  697.34   1
  -7   2  -6 3024.08  438.92   1
  -7   2  -6 2962.48  439.34   1
   7  -2   7 1203.92  586.75   1
   7  -2   7 1885.06  289.32   1
  -7   2  -7  987.30  470.75   1
  -7   2  -7 1878.63  287.24   1
  -7   2  -7 1993.43  290.03   1
   7  -2   8  632.10  523.83   1
   7  -2   8  832.39  149.48   1
  -7   2  -8  692.17  349.23   1
  -7   2  -8  815.02  146.57   1
  -7   2  -8  922.73  153.80   1
   7  -2   9  -47.48  472.94   1
   7  -2   9  111.39   65.36   1
  -7   2  -9  247.12  406.19   1
  -7   2  -9  118.32   64.31   1
  -7   2  -9   92.27   74.58   1
   7  -2  10  597.45  521.56   1
   7  -2  10  139.52   73.89   1
  -7   2 -10 -136.25  444.90   1
  -7   2 -10  269.88   86.58   1
  -7   2 -10  205.85   79.90   1
  -7   1   0  477.08  122.81   1
   7  -1   0  492.32  398.35   1
   7  -1   0  710.73  127.46   1
  -7   1   0  644.97  117.54   1
  -7   1   0  717.19  121.27   1
   7  -1   1 2939.98  662.64   1
   7  -1   1 2528.57  369.47   1
   7  -1   1 2641.92  376.12   1
  -7   1  -1 1941.90  588.82   1
  -7   1  -1 2495.10  369.31   1
  -7   1  -1 2366.33  369.37   1
   7  -1   2 1244.47  497.64   1
   7  -1   2 1192.63  190.22   1
   7  -1   2 1130.57  193.66   1
  -7   1  -2  771.89  332.94   1
  -7   1  -2 1212.55  186.07   1
  -7   1  -2 1203.49  189.00   1
   7  -1   3 1390.91  506.46   1
   7  -1   3 1660.21  260.09   1
   7  -1   3 1949.31  265.69   1
  -7   1  -3 1639.91  258.60   1
  -7   1  -3 1641.32  258.61   1
   7  -1   4 1102.99  509.66   1
   7  -1   4 1449.67  215.39   1
  -7   1  -4 1240.29  368.90   1
  -7   1  -4 1398.58  214.04   1
  -7   1  -4 1281.13  214.90   1
   7  -1   5  823.15  354.24   1
   7  -1   5  508.92   96.23   1
  -7   1  -5  389.23  233.38   1
  -7   1  -5  532.86   94.53   1
  -7   1  -5  445.50   94.94   1
   7  -1   6  286.19  338.88   1
   7  -1   6   71.72   51.22   1
  -7   1  -6  200.94  161.67   1
  -7   1  -6   34.66   47.40   1
  -7   1  -6   73.59   47.67   1
   7  -1   7   83.98  348.42   1
   7  -1   7    5.36   47.16   1
  -7   1  -7  140.05  214.13   1
  -7   1  -7   11.78   56.56   1
  -7   1  -7   44.69   47.09   1
   7  -1   8  253.19  374.24   1
   7  -1   8  372.18   77.31   1
  -7   1  -8  438.79  232.43   1
  -7   1  -8  315.24   76.57   1
  -7   1  -8  313.99   78.71   1
   7  -1   9 1675.70  630.58   1
   7  -1   9 2095.14  332.06   1
  -7   1  -9 1776.64  568.83   1
  -7   1  -9 2352.17  335.73   1
  -7   1  -9 2201.32  335.02   1
   7  -1  10 1833.78  667.34   1
   7  -1  10 1909.46  281.65   1
  -7   1 -10 2141.83  578.50   1
  -7   1 -10 1756.92  281.66   1
  -7   1 -10 1724.98  285.03   1
   7  -1  11  -94.44  495.92   1
   7  -1  11    3.36   63.87   1
  -7   1 -11   21.29   63.46   1
  -7   1 -11   48.31   68.84   1
   7   0   0  587.90  303.94   1
   7   0   0   39.28   76.08   1
  -7   0   0  229.74  191.89   1
  -7   0   0  165.73   59.15   1
  -7   0   0  163.86   60.19   1
   7   0   1 2224.23  601.30   1
   7   0   1 2365.72  342.00   1
   7   0   1 2383.07  348.14   1
  -7   0  -1 1840.93  544.35   1
  -7   0  -1 2175.46  341.45   1
  -7   0  -1 2321.76  343.31   1
   7   0   2 5689.26 1328.23   1
   7   0   2 5956.13  835.97   1
   7   0   2 6341.50  841.82   1
  -7   0  -2 5125.90 1301.73   1
  -7   0  -2 5615.44  836.18   1
  -7   0  -2 5459.63  835.42   1
   7   0   3  809.31  388.59   1
   7   0   3  933.08  158.79   1
   7   0   3  973.52  165.79   1
  -7   0  -3  858.91  293.87   1
  -7   0  -3 1022.68  158.91   1
  -7   0  -3 1029.16  158.62   1
   7   0   4   88.41  313.70   1
   7   0   4  215.69   56.89   1
  -7   0  -4   35.91  198.53   1
  -7   0  -4  140.96   52.79   1
  -7   0  -4  150.14   55.41   1
   7   0   5  140.73  326.00   1
   7   0   5  287.93   70.61   1
  -7   0  -5  229.66  207.08   1
  -7   0  -5  303.52   68.85   1
  -7   0  -5  309.48   68.82   1
  -7   0  -6 1951.71  502.06   1
   7   0   6 2028.49  694.97   1
   7   0   6 2648.69  410.89   1
  -7   0  -6 2686.85  410.42   1
  -7   0  -6 3129.67  412.45   1
   7   0   7 8826.38 1995.12   1
   7   0   7 8790.45 1269.28   1
  -7   0  -7 7392.87 1982.21   1
  -7   0  -7 9054.84 1270.57   1
  -7   0  -7 8849.85 1270.52   1
   7   0   8 4245.59 1009.82   1
   7   0   8 4185.81  625.03   1
  -7   0  -8 4294.05  992.77   1
  -7   0  -8 4227.70  625.91   1
  -7   0  -8 4457.55  627.07   1
   7   0   9   28.81  310.69   1
   7   0   9   47.20   48.01   1
  -7   0  -9 -178.58  264.35   1
  -7   0  -9   94.83   60.44   1
  -7   0  -9   33.43   52.68   1
   7   0  10  862.05  427.15   1
   7   0  10  990.04  177.49   1
  -7   0 -10 1093.17  179.02   1
  -7   0 -10 1139.04  180.81   1
   7   0  11  -59.91  468.05   1
   7   0  11  138.87   70.96   1
  -7   0 -11  146.82   73.08   1
  -7   0 -11  183.87   74.66   1
   7   0  12 3677.25  910.34   1
   7   0  12 3027.90  467.34   1
  -7   0 -12 3184.24  469.82   1
  -7   0 -12 3189.30  472.03   1
   7   1   0  484.89  383.24   1
   7   1   0  650.72  109.03   1
  -7  -1   0  317.59  247.22   1
  -7  -1   0  475.83   98.17   1
  -7  -1   0  563.02  102.71   1
   7   1   1 4468.16 1128.79   1
   7   1   1 5038.00  710.30   1
   7   1   1 5176.91  717.08   1
  -7  -1  -1 5192.84 1115.20   1
  -7  -1  -1 4705.59  711.07   1
  -7  -1  -1 4753.93  710.47   1
   7   1   2 9338.53 2648.63   1
   7   1   212321.19 1696.78   1
   7   1   212886.81 1701.97   1
  -7  -1  -212686.27 2645.83   1
  -7  -1  -211388.79 1696.80   1
  -7  -1  -211193.67 1696.60   1
   7   1   3 5572.14 1366.95   1
   7   1   3 6338.25  869.12   1
   7   1   3 6359.06  873.46   1
  -7  -1  -3 6906.61 1362.07   1
  -7  -1  -3 5253.88  869.25   1
  -7  -1  -3 6102.42  869.64   1
   7   1   4 1229.02  471.74   1
   7   1   4 1552.33  237.44   1
  -7  -1  -4 1410.69  418.91   1
  -7  -1  -4 1582.26  237.77   1
  -7  -1  -4 1568.59  238.00   1
   7   1   5 2826.96  752.61   1
   7   1   5 3556.25  463.10   1
  -7  -1  -5 3109.13  738.68   1
  -7  -1  -5 3131.14  463.44   1
  -7  -1  -5 2756.27  462.55   1
   7   1   6  142.18  269.11   1
   7   1   6  142.64   52.21   1
  -7  -1  -6  122.76  234.45   1
  -7  -1  -6  143.71   55.24   1
  -7  -1  -6  163.43   55.37   1
   7   1   7 7115.99 1735.38   1
   7   1   7 7741.76 1101.19   1
  -7  -1  -7 6244.11 1709.92   1
  -7  -1  -7 7861.17 1102.34   1
  -7  -1  -7 7572.75 1102.41   1
   7   1   8 5682.65 1458.42   1
   7   1   8 6360.89  917.66   1
  -7  -1  -8 6069.41  919.73   1
  -7  -1  -8 6722.78  920.51   1
   7   1   9  -33.14  309.62   1
   7   1   9   55.77   57.07   1
  -7  -1  -9   14.92   52.48   1
  -7  -1  -9   48.38   64.00   1
   7   1  10 1771.98  600.30   1
   7   1  10 1876.37  292.62   1
  -7  -1 -10 1870.22  295.02   1
  -7  -1 -10 2065.27  297.58   1
   7   1  11  284.34  449.57   1
   7   1  11  272.29   75.02   1
  -7  -1 -11  204.40   82.93   1
  -7  -1 -11  218.05   80.31   1
   7   1  12  312.61  444.44   1
   7   1  12  377.16   94.32   1
  -7  -1 -12  514.83  104.63   1
  -7  -1 -12  358.57   99.85   1
   7   1  13  925.17  667.15   1
   7   1  13  948.61  172.54   1
  -7  -1 -13 1039.01  175.99   1
  -7  -1 -13 1097.29  179.37   1
   7   2   013941.40 3210.31   1
   7   2   014853.78 2060.84   1
  -7  -2   013410.19 2056.01   1
  -7  -2   015054.69 2056.13   1
   7   2   1  877.57  354.54   1
   7   2   1 1078.99  167.17   1
   7   2   1 1014.44  173.91   1
  -7  -2  -1 1015.73  166.93   1
  -7  -2  -1 1081.89  170.13   1
   7   2   2  781.76  310.49   1
   7   2   2  696.92  129.06   1
   7   2   2  786.39  131.53   1
  -7  -2  -2  705.79  123.46   1
  -7  -2  -2  740.84  123.66   1
   7   2   3  255.51  273.89   1
   7   2   3  349.85   77.99   1
  -7  -2  -3  296.96   71.97   1
  -7  -2  -3  375.83   72.85   1
   7   2   4 2082.73  512.64   1
   7   2   4 1974.74  294.38   1
  -7  -2  -4 1971.84  295.57   1
  -7  -2  -4 1915.54  294.96   1
   7   2   5 6879.92 1896.29   1
   7   2   5 8152.52 1213.59   1
  -7  -2  -5 7984.19 1215.32   1
  -7  -2  -5 9397.73 1215.46   1
   7   2   6 5563.56 1584.89   1
   7   2   6 7088.75 1012.84   1
  -7  -2  -6 7066.98 1015.44   1
  -7  -2  -6 7118.57 1014.25   1
   7   2   7  147.49  267.97   1
   7   2   7   92.90   50.12   1
  -7  -2  -7  165.61   55.57   1
  -7  -2  -7  120.70   54.93   1
   7   2   8 -106.87  272.04   1
   7   2   8  -20.75   43.24   1
  -7  -2  -8   46.59   48.90   1
  -7  -2  -8   -6.92   48.19   1
   7   2   9  307.21  300.19   1
   7   2   9  432.74   89.89   1
  -7  -2  -9  453.75   96.32   1
  -7  -2  -9  502.31   96.09   1
   7   2  10 1921.48  491.97   1
   7   2  10 1816.75  273.65   1
  -7  -2 -10 1721.74  278.04   1
  -7  -2 -10 1764.07  277.70   1
   7   2  11 1718.87  549.13   1
   7   2  11 2054.71  312.73   1
  -7  -2 -11 1977.65  314.31   1
  -7  -2 -11 2090.66  317.92   1
   7   2  12  621.42  461.44   1
   7   2  12  696.78  127.13   1
  -7  -2 -12  717.50  131.49   1
  -7  -2 -12  635.86  133.00   1
   7   2  13   -7.07  443.75   1
   7   2  13  251.11   79.45   1
  -7  -2 -13  338.55   87.84   1
  -7  -2 -13  331.24   90.35   1
   7   3   0 4251.59  956.45   1
   7   3   0 4124.21  606.07   1
  -7  -3   0 3910.07  601.05   1
  -7  -3   0 4311.96  601.12   1
   7   3   1 3354.96  806.53   1
   7   3   1 3574.49  503.76   1
   7   3   1 3896.60  511.13   1
  -7  -3  -1 3028.71  504.42   1
  -7  -3  -1 3385.85  505.62   1
   7   3   2  241.02  223.21   1
   7   3   2    7.90   45.74   1
   7   3   2  -11.97   61.38   1
  -7  -3  -2   82.33   48.74   1
   7   3   3   89.78  225.54   1
   7   3   3   33.42   42.79   1
  -7  -3  -3   44.21   40.72   1
  -7  -3  -3   28.58   40.43   1
   7   3   4  755.87  268.82   1
   7   3   4  732.28  114.86   1
  -7  -3  -4  616.37  116.09   1
  -7  -3  -4  622.97  114.33   1
   7   3   5 1282.82  366.31   1
   7   3   5 1287.82  204.58   1
  -7  -3  -5 1274.76  207.41   1
  -7  -3  -5 1350.85  206.27   1
   7   3   6  271.99  240.21   1
   7   3   6  261.46   70.75   1
  -7  -3  -6  310.79   77.26   1
  -7  -3  -6  267.89   68.95   1
   7   3   7  626.09  245.96   1
   7   3   7  466.16   84.21   1
  -7  -3  -7  369.12   88.93   1
  -7  -3  -7  396.55   87.77   1
   7   3   8  756.01  308.27   1
   7   3   8  746.27  138.67   1
  -7  -3  -8  805.27  141.80   1
  -7  -3  -8  893.88  144.86   1
   7   3   9  915.22  327.75   1
   7   3   9  780.72  134.19   1
  -7  -3  -9  698.80  136.97   1
  -7  -3  -9  801.57  138.70   1
   7   3  10  135.33  342.08   1
   7   3  10   69.67   47.07   1
  -7  -3 -10   41.65   61.48   1
  -7  -3 -10   54.14   50.99   1
   7   3  11  525.46  378.20   1
   7   3  11  394.71   91.43   1
  -7  -3 -11  495.70  104.36   1
  -7  -3 -11  501.45   97.05   1
   7   3  12   49.74  388.72   1
   7   3  12  -18.15   64.88   1
  -7  -3 -12   -0.32   66.00   1
  -7  -3 -12   93.22   67.31   1
   7   3  13  575.44  358.00   1
   7   3  13  522.76  108.12   1
  -7  -3 -13  612.93  122.00   1
  -7  -3 -13  519.18  117.94   1
   7   4   0 2821.86  742.23   1
   7   4   0 3098.14  473.01   1
  -7  -4   0 3084.81  468.27   1
  -7  -4   0 3349.94  467.25   1
   7   4   1 2288.62  714.94   1
   7   4   1 3201.05  448.67   1
   7   4   1 2752.24  452.46   1
  -7  -4  -1 2950.38  448.97   1
  -7  -4  -1 3240.78  448.34   1
   7   4   2  726.87  266.70   1
   7   4   2  563.65  113.27   1
  -7  -4  -2  561.49  113.65   1
  -7  -4  -2  674.11  110.95   1
   7   4   3  268.25  219.78   1
   7   4   3   99.48   52.80   1
  -7  -4  -3  188.72   58.81   1
  -7  -4  -3  139.87   66.74   1
   7   4   4  515.10  250.46   1
   7   4   4  498.64   92.99   1
  -7  -4  -4  543.45  108.06   1
  -7  -4  -4  477.56   98.34   1
   7   4   5 5746.70 1311.24   1
   7   4   5 5642.53  838.97   1
  -7  -4  -5 5737.49  842.49   1
  -7  -4  -5 6066.60  841.08   1
   7   4   611632.74 2329.35   1
   7   4   610573.81 1493.87   1
  -7  -4  -610034.99 1497.13   1
  -7  -4  -610425.22 1495.45   1
   7   4   7 3158.88  765.08   1
  -7  -4  -7 3146.37  485.50   1
  -7  -4  -7 3424.84  486.16   1
   7   4   8  209.13  231.44   1
   7   4   8  197.38   54.96   1
  -7  -4  -8  171.64   68.74   1
  -7  -4  -8  162.69   68.62   1
   7   4   9  435.02  258.84   1
   7   4   9  412.51   87.08   1
  -7  -4  -9  357.52   93.64   1
  -7  -4  -9  402.66   85.42   1
   7   4  10 1029.09  359.24   1
   7   4  10 1236.15  190.05   1
  -7  -4 -10 1087.26  198.46   1
  -7  -4 -10 1257.68  194.21   1
   7   4  11 7593.64 1520.94   1
   7   4  11 6930.80  961.31   1
  -7  -4 -11 5778.49  966.20   1
  -7  -4 -11 6914.52  965.48   1
   7   4  12 2640.95 1060.68   1
   7   4  12 5244.16 1065.36   1
   7   4  12 4339.58  644.76   1
  -7  -4 -12 4490.36  650.46   1
  -7  -4 -12 4619.89  650.32   1
   7   4  13  143.77  313.49   1
   7   4  13   36.24  403.84   1
   7   4  13   15.57   54.51   1
  -7  -4 -13   21.66   77.26   1
  -7  -4 -13   40.66   67.78   1
   7   4  14  444.56  420.09   1
   7   4  14  104.81  423.84   1
   7   4  14  115.36   65.71   1
  -7  -4 -14  201.74   81.05   1
  -7  -4 -14  151.65   78.75   1
   7   5   0 3254.91  657.09   1
   7   5   0 3002.30  672.77   1
   7   5   0 2396.68  420.83   1
  -7  -5   0 2942.81  418.92   1
  -7  -5   0 2947.26  418.31   1
   7   5   1 7126.32 1842.27   1
  -7  -5  -1 7607.22 1183.20   1
  -7  -5  -1 8924.03 1182.99   1
   7   5   2 1537.45  457.68   1
   7   5   2 1752.73  273.67   1
  -7  -5  -2 1836.55  277.33   1
  -7  -5  -2 1903.71  276.62   1
   7   5   3 1246.04  252.02   1
   7   5   3 1596.61  228.30   1
  -7  -5  -3 1339.78  229.59   1
  -7  -5  -3 1466.36  229.86   1
   7   5   4 2113.85  741.40   1
   7   5   4 3095.71  470.51   1
  -7  -5  -4 3339.38  475.89   1
  -7  -5  -4 3362.46  472.33   1
   7   5   5  353.99  233.28   1
   7   5   5  389.59   83.19   1
  -7  -5  -5  367.97   99.31   1
  -7  -5  -5  446.99   95.70   1
   7   5   6 8278.37 2178.66   1
   7   5   610225.00 1400.00   1
  -7  -5  -6 9241.33 1403.71   1
  -7  -5  -6 9874.74 1402.32   1
   7   5   7 5102.85 1222.15   1
   7   5   7 5548.74  784.12   1
  -7  -5  -7 5234.53  789.70   1
  -7  -5  -7 5429.67  787.48   1
   7   5   8  589.50  266.11   1
   7   5   8  675.80  122.68   1
  -7  -5  -8  627.45  133.82   1
  -7  -5  -8  546.97  117.60   1
   7   5   9 1321.55  668.75   1
   7   5   9 3046.81  689.04   1
   7   5   9 3097.04  427.64   1
  -7  -5  -9 2608.04  436.70   1
  -7  -5  -9 3050.68  433.10   1
   7   5  10  377.23  287.33   1
   7   5  10  665.30  277.06   1
   7   5  10  685.23  118.67   1
  -7  -5 -10  574.65  132.84   1
  -7  -5 -10  709.89  126.86   1
   7   5  11 1185.62  530.17   1
   7   5  11 1868.26  522.24   1
   7   5  11 1833.16  274.68   1
  -7  -5 -11 1900.26  293.50   1
  -7  -5 -11 1724.36  280.20   1
   7   5  12 1996.99  648.68   1
   7   5  12 2322.18  651.36   1
   7   5  12 2403.91  367.39   1
  -7  -5 -12 2668.40  378.61   1
  -7  -5 -12 2352.53  372.81   1
   7   5  13  -24.95  320.82   1
   7   5  13   25.62  356.37   1
   7   5  13   53.85   62.45   1
  -7  -5 -13   78.43   75.45   1
  -7  -5 -13   28.84   68.56   1
   7   5  14  719.31  482.03   1
   7   5  14  714.92  468.74   1
   7   5  14  608.56  136.56   1
  -7  -5 -14  887.28  153.51   1
  -7  -5 -14  717.78  144.13   1
   7   6   0   99.35  176.43   1
   7   6   0  150.72  223.40   1
  -7  -6   0  138.19   51.10   1
  -7  -6   0  166.07   51.37   1
   7   6   1 1164.40  269.79   1
   7   6   1 1007.29  314.49   1
  -7  -6  -1  843.65  154.99   1
  -7  -6  -1  941.28  152.21   1
   7   6   2  588.40  220.86   1
   7   6   2  526.12  238.08   1
   7   6   2  284.60   69.76   1
  -7  -6  -2  328.67   84.45   1
  -7  -6  -2  358.49   76.92   1
   7   6   3 7568.93 1764.70   1
   7   6   3 7146.90 1769.01   1
  -7  -6  -3 8050.97 1135.65   1
   7   6   412943.38 3094.91   1
   7   6   414245.56 1986.98   1
  -7  -6  -413690.70 1987.96   1
   7   6   5 3573.62  965.94   1
   7   6   5 3924.75  975.25   1
   7   6   5 4504.06  623.06   1
  -7  -6  -5 4052.94  628.93   1
  -7  -6  -5 4357.00  624.63   1
   7   6   6  226.91  224.14   1
   7   6   6  230.79  220.18   1
   7   6   6  228.39   68.29   1
  -7  -6  -6   93.21   72.89   1
  -7  -6  -6  205.15   78.35   1
   7   6   7  230.80  184.25   1
   7   6   7  160.41  221.25   1
   7   6   7   93.08   54.45   1
  -7  -6  -7   14.34   86.02   1
  -7  -6  -7  146.25   59.68   1
   7   6   8 1146.42  315.65   1
   7   6   8  753.72  340.16   1
   7   6   8 1373.68  190.86   1
  -7  -6  -8  827.22  200.89   1
  -7  -6  -8 1171.42  188.52   1
   7   6   9 3663.92 1321.48   1
   7   6   9 6073.30 1334.07   1
   7   6   9 6479.65  855.09   1
  -7  -6  -9 4742.76  861.12   1
  -7  -6  -9 6440.10  859.37   1
   7   6  10 1975.98  685.02   1
   7   6  10 2878.24  702.11   1
   7   6  10 2888.49  439.36   1
  -7  -6 -10 3169.16  451.71   1
  -7  -6 -10 3066.33  445.34   1
   7   6  11  185.79  221.78   1
   7   6  11  510.86  272.84   1
   7   6  11  430.35   89.72   1
  -7  -6 -11  387.49  118.29   1
  -7  -6 -11  422.23   98.84   1
   7   6  12   37.97  242.68   1
   7   6  12  -74.75  327.52   1
   7   6  12  176.94   81.43   1
  -7  -6 -12  164.97   86.79   1
  -7  -6 -12  210.06   78.14   1
   7   6  13  386.88  443.92   1
   7   6  13  104.81  365.78   1
   7   6  13  229.84   80.39   1
  -7  -6 -13  330.37   93.57   1
  -7  -6 -13  224.03   89.73   1
   7   6  14  351.06  375.63   1
   7   6  14  558.84  409.24   1
   7   6  14  256.72   92.05   1
  -7  -6 -14  555.82  107.07   1
  -7  -6 -14  269.36  106.35   1
   7   7   0 1718.99  322.36   1
   7   7   0 1651.30  323.91   1
  -7  -7   0  928.36  160.55   1
  -7  -7   0  817.40  154.16   1
   7   7   1  497.45  209.90   1
   7   7   1  383.46  229.07   1
  -7  -7  -1  250.75   68.14   1
  -7  -7  -1  193.64   58.44   1
   7   7   2  347.98  212.66   1
   7   7   2  382.48  228.51   1
  -7  -7  -2  249.79   63.21   1
   7   7   3  129.53  194.12   1
   7   7   3   87.51  219.52   1
   7   7   3   98.33   48.46   1
  -7  -7  -3  143.34   59.30   1
  -7  -7  -3  125.36   57.33   1
   7   7   4  482.35  268.15   1
   7   7   4  775.68  265.05   1
   7   7   4  652.59  112.23   1
  -7  -7  -4  507.69  123.57   1
  -7  -7  -4  743.64  117.39   1
   7   7   5 1305.92  296.11   1
   7   7   5 1348.80  318.14   1
  -7  -7  -5  775.68  175.21   1
  -7  -7  -5 1093.06  168.40   1
   7   7   6   86.25  183.09   1
   7   7   6  206.51  217.06   1
   7   7   6   53.80   58.05   1
  -7  -7  -6  123.24   80.75   1
  -7  -7  -6   90.99   68.01   1
   7   7   7  128.91  188.17   1
   7   7   7   70.89  219.88   1
   7   7   7  148.18   64.08   1
  -7  -7  -7   74.62   85.36   1
  -7  -7  -7   91.69   68.60   1
   7   7   8   11.14  196.15   1
   7   7   8  -98.99  222.56   1
   7   7   8   54.99   55.36   1
  -7  -7  -8  -31.03  113.30   1
  -7  -7  -8   62.73   67.31   1
   7   7   9  -16.41  213.14   1
   7   7   9   17.09  225.30   1
   7   7   9   -7.10   48.55   1
  -7  -7  -9   28.48  108.45   1
  -7  -7  -9   33.79   71.86   1
   7   7  10  213.76  226.96   1
   7   7  10  183.81  246.89   1
   7   7  10  154.89   70.84   1
  -7  -7 -10  243.98   85.91   1
  -7  -7 -10   72.90   82.64   1
   7   7  11  -94.53  232.06   1
   7   7  11  -93.28  252.44   1
   7   7  11   52.07   57.41   1
  -7  -7 -11  -15.16   64.17   1
   7   7  12   22.16  334.51   1
   7   7  12   36.14  335.62   1
   7   7  12  108.39   68.71   1
  -7  -7 -12  108.39   90.89   1
  -7  -7 -12  128.25   73.47   1
   7   7  13  280.39  280.51   1
   7   7  13  132.69  383.21   1
   7   7  13  267.01   84.32   1
  -7  -7 -13  391.50  104.77   1
  -7  -7 -13  253.68   98.34   1
   7   8   0  315.32  211.38   1
   7   8   0  751.15  358.22   1
   7   8   1  803.33  239.05   1
   7   8   1  635.77  283.51   1
   7   8   2  654.25  230.55   1
   7   8   2  592.16  266.40   1
   7   8   3  999.81  272.50   1
   7   8   3  811.43  318.17   1
   7   8   4 1927.91  437.82   1
   7   8   4 2020.45  465.86   1
   7   8   4 1831.05  266.85   1
  -7  -8  -4 1293.80  272.47   1
  -7  -8  -4 1989.33  268.36   1
   7   8   5 4849.52 1062.67   1
   7   8   5 4692.70 1072.54   1
   7   8   5 4988.20  679.91   1
  -7  -8  -5 3733.90  682.79   1
  -7  -8  -5 5063.44  680.55   1
   7   8   6 1820.72  446.00   1
   7   8   6 1718.78  457.32   1
   7   8   7  -38.03  204.90   1
   7   8   7 -146.80  230.23   1
   7   8   7  -41.50   56.78   1
  -7  -8  -7   37.46   68.49   1
  -7  -8  -7   65.62   61.91   1
   7   8   8  -11.50  197.73   1
   7   8   8   91.82  234.17   1
   7   8   8   39.00   66.07   1
  -7  -8  -8  -10.41   75.52   1
  -7  -8  -8   44.23   66.92   1
   7   8   9 1051.89  414.17   1
   7   8   9 1997.78  442.91   1
   7   8   9 1847.39  254.97   1
  -7  -8  -9 1240.35  261.90   1
  -7  -8  -9 1782.92  261.69   1
   7   8  10 3768.08 1285.87   1
   7   8  10 7140.65 1304.58   1
  -7  -8 -10 5243.78  834.02   1
  -7  -8 -10 6310.27  834.16   1
   7   8  11 1880.97  568.35   1
   7   8  11 2909.10  607.29   1
   7   8  11 2385.05  355.34   1
  -7  -8 -11 2067.55  358.97   1
  -7  -8 -11 2522.69  358.44   1
   7   8  12 -155.44  206.35   1
   7   8  12  -61.04  395.53   1
   7   8  12   74.28   77.95   1
  -7  -8 -12   -5.00   77.85   1
  -7  -8 -12   27.46   68.94   1
   7   8  13   32.10  228.07   1
   7   8  13  305.27  381.91   1
   7   8  13  256.39   80.90   1
  -7  -8 -13  295.94  100.34   1
  -7  -8 -13  222.94   96.27   1
   7   9   0 2335.94  600.16   1
   7   9   0 2068.91  594.54   1
   7   9   1   20.70  216.14   1
   7   9   1 -193.39  270.52   1
   7   9   2 2061.83  484.44   1
   7   9   2 1862.82  512.83   1
   7   9   3  693.05  231.50   1
   7   9   3  513.96  295.66   1
   7   9   4 1143.15  236.81   1
   7   9   4  985.27  299.05   1
   7   9   5 4519.90 1075.31   1
   7   9   5 5066.20 1094.61   1
   7   9   6  952.52  220.64   1
   7   9   6  829.49  285.91   1
   7   9   6  604.05  100.97   1
  -7  -9  -6  303.03  101.76   1
   7   9   7  735.89  288.84   1
   7   9   7 1039.58  325.66   1
   7   9   7  738.19  135.00   1
  -7  -9  -7  850.45  143.78   1
   7   9   8 3009.81  858.60   1
   7   9   8 4092.58  886.73   1
   7   9   8 3849.63  555.36   1
  -7  -9  -8 3752.28  557.00   1
   7   9   9   39.54  261.57   1
   7   9   9  168.27  217.13   1
   7   9   9  -14.44   64.05   1
  -7  -9  -9   53.51   82.48   1
  -7  -9  -9   96.51   74.15   1
   7   9  10 1342.78  410.17   1
   7   9  10 2314.59  455.60   1
   7   9  10 1406.20  238.83   1
  -7  -9 -10 1310.64  247.85   1
  -7  -9 -10 1775.32  247.58   1
   7   9  11 1110.45  375.92   1
   7   9  11 1608.89  422.36   1
   7   9  11 1243.38  207.30   1
  -7  -9 -11 1040.73  214.00   1
  -7  -9 -11 1440.36  215.39   1
   7   9  12  154.30  247.03   1
   7   9  12  117.36  330.03   1
   7   9  12  139.17   71.77   1
  -7  -9 -12   90.54   97.86   1
  -7  -9 -12  128.23   78.54   1
   7  10   0  721.40  299.16   1
   7  10   0  528.68  364.98   1
   7  10   1  153.41  317.78   1
   7  10   1  226.25  320.62   1
   7  10   2 3340.71  786.98   1
   7  10   3 7908.55 1773.52   1
   7  10   4 1842.86  462.18   1
   7  10   5  320.30  223.15   1
   7  10   6  284.13  255.17   1
   7  10   7 1234.41  332.54   1
   7  10   7 1592.42  352.63   1
  -7 -10  -7  792.56  158.17   1
   7  10   8 4807.98 1037.37   1
   7  10   8 6386.88 1050.08   1
   7  10   8 4181.93  655.48   1
  -7 -10  -8 4493.81  659.56   1
   7  10   9 2032.99  481.55   1
   7  10   9 2444.96  509.90   1
   7  10   9 1727.65  282.47   1
  -7 -10  -9 1772.97  286.21   1
   7  10  10   84.62  236.22   1
   7  10  10  -16.03  307.10   1
   7  10  10  100.56   82.66   1
  -7 -10 -10  122.69   92.02   1
  -7 -10 -10  122.45   85.60   1
   7  10  11 -135.81  244.15   1
   7  10  11  133.35  319.59   1
   7  10  11   33.29   82.38   1
  -7 -10 -11   38.58   94.70   1
  -7 -10 -11   35.31   85.70   1
   7  11   0  525.13  349.59   1
   7  11   1  592.77  391.79   1
   7  11   2  238.27  336.04   1
   7  11   3 1128.96  325.92   1
   7  11   4  153.86  203.28   1
   7  11   5  214.21  206.44   1
   7  11   6  256.74  214.81   1
   7  11   7   70.10  206.61   1
   7  11   8  186.76  214.36   1
   7  11   8   12.48   61.62   1
   7  11   9   54.44  218.87   1
   7  11   9 -215.12  302.21   1
  -7 -11  -9   36.80   64.33   1
  -7 -11  -9    8.31   84.03   1
   7  11  10   23.87  222.82   1
   7  11  10  284.78  316.34   1
   7  11  10   -8.76   80.80   1
  -7 -11 -10   90.40   74.71   1
  -7 -11 -10   34.65   99.80   1
   7  12   2  647.56  375.41   1
   7  12   3  756.10  330.08   1
   7  12   4  572.39  291.14   1
   7  12   5  252.49  262.48   1
   7  12   6  -33.98  255.58   1
   7  12   7  344.94  250.54   1
   8  -3   0 1831.11  936.44   1
   8  -3   0 2940.07  540.43   1
  -8   3   0 2619.07  903.59   1
  -8   3   0 3724.50  534.64   1
  -8   3   0 4115.28  535.77   1
   8  -3   1 3103.71 1225.53   1
   8  -3   1 4361.53  735.37   1
  -8   3  -1 3538.89 1161.96   1
  -8   3  -1 5166.77  729.39   1
  -8   3  -1 5422.10  728.75   1
   8  -3   2 2933.41  859.91   1
   8  -3   2 2790.10  429.85   1
   8  -3   2 2246.70  432.54   1
  -8   3  -2 1802.15  713.67   1
  -8   3  -2 3143.80  427.79   1
  -8   3  -2 3192.92  428.38   1
   8  -3   3 1473.39  665.57   1
   8  -3   3 1410.91  218.73   1
  -8   3  -3  733.60  442.15   1
  -8   3  -3 1247.83  213.22   1
  -8   3  -3 1441.41  218.82   1
   8  -3   4 1197.36  762.12   1
   8  -3   4 1075.93  198.34   1
  -8   3  -4  579.50  421.61   1
  -8   3  -4 1189.92  196.48   1
  -8   3  -4 1472.37  203.17   1
   8  -3   5 1266.55  811.55   1
   8  -3   5 1659.86  266.79   1
  -8   3  -5 1099.59  502.92   1
  -8   3  -5 1619.33  264.85   1
  -8   3  -5 1920.30  267.96   1
   8  -2   0  766.73  533.99   1
   8  -2   0  356.73  101.42   1
  -8   2   0  392.31  326.42   1
  -8   2   0  433.43   92.22   1
  -8   2   0  475.95   95.74   1
   8  -2   1   70.82  462.53   1
   8  -2   1  143.64   87.38   1
  -8   2  -1  171.89  313.39   1
  -8   2  -1  195.88   76.50   1
  -8   2  -1  259.50   82.01   1
   8  -2   2  -37.95  452.33   1
   8  -2   2  210.81   77.79   1
   8  -2   2  150.99   73.90   1
  -8   2  -2  -42.42  311.03   1
  -8   2  -2  132.91   65.09   1
  -8   2  -2  252.75   88.99   1
   8  -2   3  969.21  632.79   1
   8  -2   3 1530.91  236.72   1
  -8   2  -3 1053.14  457.42   1
  -8   2  -3 1550.19  232.48   1
  -8   2  -3 1448.65  236.68   1
   8  -2   4 1791.87  612.25   1
   8  -2   4 1828.65  288.74   1
  -8   2  -4 1162.45  520.49   1
  -8   2  -4 1945.20  287.36   1
  -8   2  -4 1945.09  290.05   1
   8  -2   5  534.22  483.38   1
   8  -2   5  903.21  152.19   1
  -8   2  -5  534.98  361.45   1
  -8   2  -5  812.83  150.43   1
  -8   2  -5  950.90  154.16   1
   8  -2   6  -49.87  436.08   1
   8  -2   6  160.53   80.68   1
  -8   2  -6  266.12  309.83   1
  -8   2  -6  128.49   67.73   1
  -8   2  -6  177.03   83.47   1
   8  -2   7  386.51  456.38   1
   8  -2   7  347.50   81.82   1
  -8   2  -7  503.37  321.78   1
  -8   2  -7  245.54   77.67   1
  -8   2  -7  189.83   80.82   1
   8  -2   8  194.38  465.04   1
  -8   2  -8  383.93  338.24   1
  -8   2  -8  378.78   90.01   1
   8  -1   0 1570.02  719.59   1
   8  -1   0 2357.68  382.85   1
  -8   1   0 1761.39  604.85   1
  -8   1   0 2477.62  375.12   1
  -8   1   0 2751.74  376.08   1
   8  -1   1 -143.65  393.91   1
   8  -1   1  153.23   72.56   1
  -8   1  -1   33.55  231.16   1
  -8   1  -1  215.72   65.14   1
  -8   1  -1  184.71   80.59   1
   8  -1   2 -266.63  418.43   1
   8  -1   2  125.84   72.44   1
   8  -1   2   79.79   68.27   1
  -8   1  -2  121.44  230.27   1
  -8   1  -2  122.12   60.88   1
  -8   1  -2  191.57   74.25   1
   8  -1   3 3880.22  928.86   1
   8  -1   3 3332.74  533.94   1
  -8   1  -3 2696.15  864.84   1
  -8   1  -3 3723.07  534.35   1
  -8   1  -3 3959.81  536.50   1
   8  -1   411287.90 3015.42   1
   8  -1   413286.30 1906.93   1
  -8   1  -410971.64 2980.14   1
  -8   1  -413172.28 1906.49   1
  -8   1  -413847.41 1907.40   1
   8  -1   5 8642.75 2277.89   1
   8  -1   5 9646.28 1440.20   1
  -8   1  -5 6552.85 2249.72   1
  -8   1  -510278.23 1440.26   1
  -8   1  -510597.76 1441.33   1
   8  -1   6  369.09  546.68   1
   8  -1   6  669.33  126.61   1
  -8   1  -6  584.47  335.96   1
  -8   1  -6  738.00  128.23   1
  -8   1  -6  682.35  128.18   1
   8  -1   7   13.69  433.01   1
   8  -1   7   94.18   69.26   1
  -8   1  -7  268.89  300.39   1
  -8   1  -7  100.02   64.19   1
  -8   1  -7  126.09   66.31   1
   8  -1   8 1066.08  501.62   1
   8  -1   8 1086.39  170.28   1
  -8   1  -8  636.37  375.48   1
  -8   1  -8  928.18  171.92   1
  -8   1  -8  979.46  171.01   1
  -8   1  -9 5070.99 1335.11   1
   8  -1   9 5748.91 1500.95   1
   8  -1   9 7191.66  919.87   1
  -8   1  -9 6453.71  918.87   1
  -8   1  -9 5479.77  919.33   1
   8   0   014301.00 3435.61   1
   8   0   015449.49 2196.10   1
  -8   0   016530.52 3423.35   1
  -8   0   013902.45 2189.61   1
  -8   0   016572.56 2190.55   1
   8   0   1 2308.88  794.67   1
   8   0   1 3185.53  472.05   1
  -8   0  -1 2823.73  464.92   1
  -8   0  -1 3528.24  467.10   1
   8   0   2 1020.41  409.87   1
   8   0   2  931.82  153.23   1
   8   0   2  978.52  161.93   1
  -8   0  -2 1066.40  329.64   1
  -8   0  -2  887.20  151.56   1
  -8   0  -2  901.17  152.49   1
   8   0   3 5147.57 1206.63   1
   8   0   3 5412.41  752.28   1
  -8   0  -3 5309.41 1185.42   1
  -8   0  -3 4933.72  751.34   1
  -8   0  -3 5187.36  751.91   1
   8   0   416463.91 3892.92   1
   8   0   418479.81 2488.96   1
  -8   0  -416738.05 2488.16   1
  -8   0  -417109.91 2488.57   1
   8   0   519661.11 4235.77   1
   8   0   519307.98 2705.57   1
  -8   0  -517152.95 4225.53   1
  -8   0  -518899.14 2706.22   1
  -8   0  -518803.74 2706.12   1
   8   0   6 8418.91 2247.55   1
   8   0   610809.85 1431.05   1
  -8   0  -6 7891.27 2235.19   1
  -8   0  -6 9417.60 1430.75   1
  -8   0  -6 9936.77 1431.04   1
   8   0   7 1496.92  531.00   1
   8   0   7 1687.59  272.62   1
  -8   0  -7 1280.30  477.61   1
  -8   0  -7 1821.64  272.54   1
  -8   0  -7 1846.41  273.91   1
   8   0   8 1905.17  613.42   1
   8   0   8 2373.49  333.33   1
  -8   0  -8 1627.45  561.46   1
  -8   0  -8 2078.38  331.87   1
  -8   0  -8 2170.61  334.02   1
   8   0   9 5856.99 1720.89   1
   8   0   9 7616.68 1084.22   1
  -8   0  -9 7220.77 1085.04   1
  -8   0  -9 7805.82 1086.36   1
   8   0  10 9289.14 2039.76   1
   8   0  10 8830.98 1265.98   1
  -8   0 -10 8622.68 1267.69   1
  -8   0 -10 8885.40 1267.93   1
   8   1   0 8008.81 2134.02   1
   8   1   0 9568.89 1364.56   1
  -8  -1   0 8710.91 1357.83   1
  -8  -1   010220.04 1358.43   1
   8   1   1 3333.69  854.94   1
   8   1   1 3865.00  518.33   1
  -8  -1  -1 2857.05  813.39   1
  -8  -1  -1 3295.77  510.08   1
   8   1   2  703.18  356.47   1
   8   1   2  554.59   95.78   1
   8   1   2  567.62  105.83   1
  -8  -1  -2  408.87  268.16   1
  -8  -1  -2  438.17   97.10   1
  -8  -1  -2  399.69   99.47   1
   8   1   3  926.41  370.94   1
   8   1   3  728.66  123.08   1
  -8  -1  -3  385.36  298.39   1
  -8  -1  -3  689.18  119.64   1
  -8  -1  -3  680.99  120.32   1
   8   1   4 5268.32 1177.80   1
   8   1   4 5092.40  732.42   1
  -8  -1  -4 4402.37 1154.65   1
  -8  -1  -4 5029.71  732.87   1
  -8  -1  -4 5088.67  732.83   1
   8   1   5 6703.25 1480.43   1
   8   1   5 6947.43  931.59   1
  -8  -1  -5 5216.04 1460.11   1
  -8  -1  -5 6399.93  932.83   1
  -8  -1  -5 6100.88  931.85   1
   8   1   6 2756.98  782.50   1
   8   1   6 3328.88  465.23   1
  -8  -1  -6 3187.12  466.42   1
  -8  -1  -6 2972.89  465.18   1
   8   1   7 1678.54  564.40   1
   8   1   7 2091.72  303.10   1
  -8  -1  -7 1919.73  303.78   1
   8   1   8 1823.22  662.69   1
   8   1   8 2419.28  380.93   1
  -8  -1  -8 2514.26  383.40   1
  -8  -1  -8 2727.58  385.41   1
   8   1   9  978.42  444.66   1
   8   1   9 1165.50  190.77   1
  -8  -1  -9 1119.93  193.32   1
  -8  -1  -9 1238.80  194.40   1
   8   1  10  472.17  575.95   1
   8   1  10 1052.73  179.95   1
  -8  -1 -10  968.38  177.49   1
  -8  -1 -10 1157.74  179.93   1
   8   1  11  793.56  488.20   1
   8   1  11  683.63  131.74   1
  -8  -1 -11  519.67  125.95   1
  -8  -1 -11  690.73  137.41   1
   8   2   0  378.55  362.36   1
   8   2   0  650.23  146.12   1
  -8  -2   0  753.81  132.08   1
  -8  -2   0  741.63  129.22   1
   8   2   1  761.39  444.95   1
   8   2   1 1028.40  188.46   1
  -8  -2  -1 1095.46  184.93   1
  -8  -2  -1 1206.19  181.63   1
   8   2   2  876.42  361.19   1
   8   2   2 1002.19  158.95   1
   8   2   2 1060.66  162.96   1
  -8  -2  -2  904.31  153.97   1
  -8  -2  -2  844.40  158.00   1
   8   2   3 1718.86  496.43   1
   8   2   3 1971.69  273.91   1
  -8  -2  -3 1537.08  269.65   1
  -8  -2  -3 1823.58  270.62   1
   8   2   4  335.18  309.18   1
   8   2   4  496.72   95.22   1
  -8  -2  -4  434.24   89.33   1
  -8  -2  -4  430.93   88.48   1
   8   2   5  -63.57  292.13   1
   8   2   5  119.89   54.59   1
  -8  -2  -5  157.50   54.81   1
  -8  -2  -5  170.03   54.24   1
   8   2   6  291.11  299.08   1
   8   2   6  190.40   67.32   1
  -8  -2  -6  171.34   60.35   1
  -8  -2  -6  142.73   64.23   1
   8   2   7 1611.86  466.16   1
   8   2   7 1598.18  246.44   1
  -8  -2  -7 1634.74  248.78   1
  -8  -2  -7 1567.43  247.15   1
   8   2   8 3392.80  931.34   1
   8   2   8 3795.84  578.50   1
  -8  -2  -8 4083.16  580.41   1
  -8  -2  -8 4051.96  579.46   1
   8   2   9 1714.99  583.88   1
   8   2   9 2177.70  339.46   1
  -8  -2  -9 2167.45  343.14   1
  -8  -2  -9 2395.71  343.69   1
   8   2  10   93.03  327.42   1
   8   2  10   83.37   65.67   1
  -8  -2 -10   75.29   85.56   1
  -8  -2 -10  153.67   70.39   1
   8   2  11  474.03  426.03   1
   8   2  11  474.14  102.18   1
  -8  -2 -11  434.13  117.78   1
  -8  -2 -11  438.05  103.56   1
   8   2  12  169.30  453.49   1
   8   3   0 1154.68  402.69   1
   8   3   0 1072.44  200.41   1
  -8  -3   0 1227.18  193.38   1
   8   3   1  750.76  417.18   1
   8   3   1  962.64  167.00   1
  -8  -3  -1  833.18  162.45   1
  -8  -3  -1 1016.91  157.34   1
   8   3   2 6521.20 1816.59   1
   8   3   2 8214.58 1158.66   1
  -8  -3  -2 8023.56 1159.60   1
  -8  -3  -2 8065.90 1159.46   1
   8   3   313800.76 4158.43   1
   8   3   319201.03 2665.47   1
  -8  -3  -317757.50 2665.79   1
  -8  -3  -319529.43 2665.92   1
   8   3   4 9416.96 2340.38   1
   8   3   410507.59 1497.17   1
  -8  -3  -4 9893.70 1498.75   1
  -8  -3  -410996.35 1498.48   1
   8   3   5 1087.80  394.23   1
   8   3   5 1155.48  189.53   1
  -8  -3  -5 1275.01  195.71   1
  -8  -3  -5 1193.82  193.02   1
   8   3   6  240.13  286.50   1
  -8  -3  -6  130.16   57.72   1
  -8  -3  -6  150.86   54.21   1
   8   3   7 3015.43  906.15   1
   8   3   7 3737.93  563.25   1
  -8  -3  -7 3976.48  567.38   1
  -8  -3  -7 3963.47  564.90   1
   8   3   813993.40 3400.25   1
   8   3   815132.14 2176.41   1
  -8  -3  -814689.99 2178.91   1
  -8  -3  -815978.64 2178.58   1
   8   3   913267.40 3107.32   1
   8   3   913651.78 1988.07   1
  -8  -3  -913814.63 1990.40   1
  -8  -3  -914348.94 1990.78   1
   8   3  10 2712.73  778.25   1
   8   3  10 3303.87  479.60   1
  -8  -3 -10 3014.12  482.28   1
  -8  -3 -10 3443.95  482.85   1
   8   3  11  428.51  455.48   1
   8   3  11  205.56   70.36   1
  -8  -3 -11   45.62   77.88   1
  -8  -3 -11   49.63   71.23   1
   8   3  12  621.31  487.46   1
   8   3  12  440.03  103.22   1
  -8  -3 -12  519.99  121.77   1
  -8  -3 -12  488.58  110.56   1
   8   4   0 2458.88  699.24   1
   8   4   0 2409.47  384.40   1
  -8  -4   0 2322.95  375.01   1
  -8  -4   0 2761.39  376.05   1
   8   4   1  852.79  383.63   1
   8   4   1 1008.32  184.79   1
  -8  -4  -1 1117.70  176.58   1
  -8  -4  -1  998.02  170.88   1
   8   4   2 8095.46 2270.30   1
   8   4   210990.38 1456.00   1
  -8  -4  -2 8432.68 1455.41   1
  -8  -4  -211062.43 1457.00   1
   8   4   324655.58 6052.62   1
   8   4   328172.04 3875.83   1
  -8  -4  -325382.59 3876.52   1
  -8  -4  -328127.17 3876.22   1
   8   4   426267.10 7148.80   1
   8   4   431477.81 4577.38   1
  -8  -4  -433006.62 4580.13   1
  -8  -4  -432759.79 4578.42   1
   8   4   5 5559.56 1385.92   1
   8   4   5 6224.66  885.79   1
  -8  -4  -5 5865.92  887.83   1
  -8  -4  -5 6287.85  886.85   1
   8   4   6  818.21  380.21   1
   8   4   6 1514.91  216.30   1
  -8  -4  -6 1326.60  219.80   1
  -8  -4  -6 1204.27  216.63   1
   8   4   7 3097.91  919.02   1
   8   4   7 4100.87  581.98   1
  -8  -4  -7 3795.68  585.78   1
  -8  -4  -7 4092.84  584.19   1
   8   4   812465.06 3310.49   1
   8   4   814931.92 2122.92   1
  -8  -4  -814284.68 2126.28   1
  -8  -4  -815542.57 2125.11   1
   8   4   915856.06 3974.41   1
   8   4   918594.60 2545.13   1
  -8  -4  -917602.21 2548.35   1
  -8  -4  -917314.64 2547.64   1
   8   4  10 7534.38 1890.28   1
   8   4  10 8744.19 1209.50   1
  -8  -4 -10 7701.16 1212.92   1
  -8  -4 -10 8741.54 1213.13   1
   8   4  11 1667.12  538.63   1
   8   4  11 1791.11  272.06   1
  -8  -4 -11 1610.11  284.58   1
  -8  -4 -11 1794.29  275.99   1
   8   4  12 1831.66  600.47   1
   8   4  12 1901.84  310.00   1
  -8  -4 -12 1974.06  319.96   1
  -8  -4 -12 2198.97  319.79   1
   8   5   0 1842.65  446.53   1
   8   5   0 1760.81  498.07   1
   8   5   0 1367.74  247.88   1
  -8  -5   0 1502.73  240.69   1
  -8  -5   0 1573.35  240.28   1
   8   5   1  -51.25  262.41   1
  -8  -5  -1  205.03   67.33   1
  -8  -5  -1  284.65   79.74   1
   8   5   2  952.20  352.69   1
   8   5   2 1196.61  179.86   1
  -8  -5  -2  965.82  182.27   1
  -8  -5  -2 1126.18  178.96   1
   8   5   3 5677.32 1545.82   1
  -8  -5  -3 6412.68  991.79   1
  -8  -5  -3 7351.84  990.64   1
   8   5   4 6496.32 1868.72   1
   8   5   4 8231.81 1198.65   1
  -8  -5  -4 8439.17 1202.20   1
  -8  -5  -4 8541.25 1198.97   1
   8   5   5 3887.24 1026.79   1
   8   5   5 4608.78  652.29   1
  -8  -5  -5 4399.74  653.18   1
   8   5   6  588.50  249.88   1
   8   5   6  801.70  140.65   1
  -8  -5  -6  737.76  139.77   1
  -8  -5  -6  741.10  136.83   1
   8   5   7  165.82  259.30   1
   8   5   7  384.20   89.71   1
  -8  -5  -7  258.32   95.12   1
  -8  -5  -7  372.67   97.10   1
   8   5   8 1710.32  541.25   1
   8   5   8 2207.39  326.40   1
  -8  -5  -8 2020.78  330.88   1
  -8  -5  -8 2216.23  327.65   1
   8   5   9 2353.94  602.31   1
   8   5   9 2573.29  364.09   1
  -8  -5  -9 2030.54  369.68   1
  -8  -5  -9 2572.84  367.72   1
   8   5  10  831.35  496.04   1
   8   5  10 1817.60  464.48   1
   8   5  10 1676.99  238.92   1
  -8  -5 -10 1207.11  251.91   1
  -8  -5 -10 1615.57  242.32   1
   8   5  11 1074.71  452.42   1
   8   5  11 1062.01  435.87   1
   8   5  11 1205.72  213.10   1
  -8  -5 -11 1291.74  223.20   1
  -8  -5 -11 1408.54  219.83   1
   8   5  12  522.16  377.96   1
   8   5  12  864.21  496.06   1
   8   5  12  686.00  151.81   1
  -8  -5 -12  777.65  172.21   1
  -8  -5 -12  948.33  161.91   1
   8   6   0  930.24  309.58   1
   8   6   0  918.61  379.55   1
  -8  -6   0  567.03  123.17   1
  -8  -6   0  671.21  123.00   1
   8   6   1  394.46  197.12   1
   8   6   1  251.80  267.95   1
  -8  -6  -1  236.70   85.21   1
  -8  -6  -1  368.23   86.57   1
   8   6   2  202.70  189.51   1
   8   6   2  202.87  262.33   1
  -8  -6  -2  166.18   76.52   1
   8   6   3  999.79  305.27   1
   8   6   3  887.66  317.93   1
   8   6   3  822.78  151.85   1
  -8  -6  -3  899.34  156.68   1
  -8  -6  -3  881.63  151.99   1
   8   6   4  838.85  254.77   1
   8   6   4  602.22  294.13   1
   8   6   4  768.70  135.14   1
  -8  -6  -4  610.30  139.28   1
  -8  -6  -4  778.06  130.21   1
   8   6   5  640.11  264.78   1
   8   6   5  338.63  259.01   1
   8   6   5  487.90   98.72   1
  -8  -6  -5  492.13  112.73   1
  -8  -6  -5  393.50   94.69   1
   8   6   6 1334.30  408.17   1
   8   6   6 1447.01  408.87   1
   8   6   6 1577.95  229.73   1
  -8  -6  -6 1322.96  235.97   1
   8   6   7 2876.09  813.29   1
   8   6   7 3202.71  828.80   1
   8   6   7 3632.81  522.04   1
  -8  -6  -7 3585.38  524.44   1
   8   6   8  901.15  355.49   1
   8   6   8 1031.65  365.01   1
   8   6   8 1189.22  186.20   1
  -8  -6  -8 1001.53  202.23   1
  -8  -6  -8 1255.33  195.91   1
   8   6   9   26.49  249.18   1
   8   6   9  112.80  257.31   1
   8   6   9   93.44   61.14   1
  -8  -6  -9   48.58   76.32   1
  -8  -6  -9   99.92   66.63   1
   8   6  10  269.78  316.83   1
   8   6  10  254.19  306.86   1
   8   6  10  172.94   71.88   1
  -8  -6 -10  109.39   84.79   1
  -8  -6 -10  156.17   86.67   1
   8   6  11  582.20  365.96   1
   8   6  11  656.18  374.03   1
   8   6  11  816.25  141.06   1
  -8  -6 -11  655.34  174.83   1
  -8  -6 -11  836.02  144.14   1
   8   6  12 2350.71  766.74   1
   8   6  12 3463.38  786.47   1
   8   6  12 3025.53  457.17   1
  -8  -6 -12 2634.18  464.87   1
  -8  -6 -12 3637.63  466.72   1
   8   7   0 2156.93  431.01   1
   8   7   0 1772.39  480.69   1
  -8  -7   0 1263.14  240.93   1
  -8  -7   0 1622.91  239.14   1
   8   7   1 7600.24 1325.45   1
   8   7   1 6965.39 1339.56   1
  -8  -7  -1 5627.73  845.83   1
  -8  -7  -1 5635.55  841.07   1
   8   7   2 8647.91 1980.23   1
   8   7   2 8291.97 1986.40   1
  -8  -7  -2 7697.55 1274.30   1
  -8  -7  -2 9782.27 1271.58   1
   8   7   3 5583.67 1103.48   1
   8   7   3 3965.43 1110.98   1
   8   7   4  825.13  290.54   1
   8   7   4  542.19  327.46   1
   8   7   4 1012.03  161.87   1
  -8  -7  -4  721.42  171.07   1
  -8  -7  -4 1125.26  163.12   1
   8   7   5  996.94  298.29   1
   8   7   5  655.98  332.02   1
   8   7   5 1028.02  168.55   1
  -8  -7  -5 1039.13  170.21   1
   8   7   6 6269.32 1612.68   1
   8   7   6 5005.97 1619.33   1
   8   7   6 8447.84 1039.31   1
  -8  -7  -6 5316.46 1043.89   1
  -8  -7  -6 7499.64 1039.33   1
   8   7   713405.44 3277.60   1
   8   7   715037.08 3283.82   1
   8   7   716935.81 2105.58   1
  -8  -7  -711157.36 2111.02   1
   8   7   8 9376.41 2688.85   1
   8   7   811815.77 2696.57   1
   8   7   812928.47 1729.11   1
  -8  -7  -8 9514.44 1736.09   1
  -8  -7  -813203.74 1731.31   1
   8   7   9 1827.65  516.50   1
   8   7   9 1936.23  508.76   1
  -8  -7  -9 1673.32  309.55   1
  -8  -7  -9 2061.57  298.74   1
   8   7  10  270.50  255.12   1
   8   7  10  203.00  289.25   1
   8   7  10  224.95   89.20   1
  -8  -7 -10  156.45  130.76   1
  -8  -7 -10  224.06   78.96   1
   8   7  11 1290.32  504.78   1
   8   7  11 1745.69  487.11   1
   8   7  11 1705.99  263.94   1
  -8  -7 -11 1495.67  277.97   1
  -8  -7 -11 1761.29  263.50   1
   8   7  12 6566.40 1605.07   1
   8   7  12 7231.21 1609.20   1
   8   7  12 6623.32 1009.72   1
  -8  -7 -12 5927.83 1011.82   1
  -8  -7 -12 8728.60 1018.79   1
   8   8   0  812.86  247.78   1
   8   8   0  387.38  376.68   1
   8   8   1 6748.80 1492.57   1
   8   8   1 6363.12 1516.40   1
   8   8   218012.86 3449.78   1
   8   8   212457.03 3447.63   1
   8   8   312195.73 2380.78   1
   8   8   314818.91 2450.54   1
  -8  -8  -310360.46 1566.40   1
   8   8   4 3265.86  612.69   1
   8   8   4 2880.19  623.67   1
   8   8   4 2112.96  375.23   1
  -8  -8  -4 2822.74  378.09   1
   8   8   5  398.78  247.55   1
   8   8   5  583.34  279.40   1
   8   8   5  519.23   96.37   1
  -8  -8  -5  304.13  115.09   1
  -8  -8  -5  519.33  103.42   1
   8   8   6 2843.69  760.56   1
   8   8   6 3232.42  756.30   1
   8   8   6 3569.39  471.19   1
  -8  -8  -6 2789.76  470.26   1
   8   8   714156.84 3133.02   1
   8   8   717996.39 3133.48   1
   8   8   715516.71 2003.51   1
  -8  -8  -711004.80 2008.80   1
   8   8   814484.45 3222.47   1
   8   8   817634.58 3227.85   1
   8   8   816282.55 2064.58   1
  -8  -8  -811379.61 2068.50   1
   8   8   9 3811.18  921.19   1
   8   8   9 5868.11  935.61   1
   8   8   9 4201.64  578.29   1
  -8  -8  -9 2810.63  580.16   1
  -8  -8  -9 4425.42  581.08   1
   8   8  10  597.26  316.26   1
   8   8  10  843.71  331.83   1
   8   8  10  654.66  132.65   1
  -8  -8 -10  473.61  138.21   1
  -8  -8 -10  724.75  127.78   1
   8   8  11  560.41  302.79   1
   8   8  11  665.78  332.25   1
   8   8  11  573.26  118.30   1
  -8  -8 -11  515.54  134.34   1
  -8  -8 -11  590.83  121.70   1
   8   8  12 2045.56  604.72   1
   8   8  12 2432.63  645.64   1
   8   9   0  216.53  243.70   1
   8   9   0  113.23  411.18   1
   8   9   1  489.71  256.42   1
   8   9   1  842.79  430.23   1
   8   9   2 3995.52  835.69   1
   8   9   2 3064.29  875.25   1
   8   9   3 6143.57 1199.40   1
   8   9   3 3965.51 1213.67   1
   8   9   4  838.04  241.98   1
   8   9   4  814.05  283.08   1
   8   9   5  206.98  263.50   1
   8   9   5  162.51  216.65   1
   8   9   5   46.74   61.43   1
  -8  -9  -5  118.21   66.33   1
  -8  -9  -5  125.52   65.69   1
   8   9   6  199.76  220.75   1
   8   9   6  228.08  291.82   1
   8   9   6   90.20   61.64   1
  -8  -9  -6  108.55   69.76   1
   8   9   7 1783.65  413.68   1
   8   9   7 1809.90  459.19   1
   8   9   7 1646.60  246.87   1
  -8  -9  -7 1282.62  246.65   1
   8   9   8 1885.59  471.34   1
   8   9   8 2444.46  516.89   1
   8   9   8 1962.73  284.18   1
  -8  -9  -8 1533.13  290.43   1
   8   9   9 1109.41  324.74   1
   8   9   9 1327.38  390.27   1
   8   9   9  959.01  174.77   1
  -8  -9  -9  877.39  187.22   1
  -8  -9  -9 1113.19  180.19   1
   8   9  10  237.50  283.47   1
   8   9  10   57.49  231.53   1
   8   9  10  129.41   82.38   1
  -8  -9 -10  183.70  102.37   1
  -8  -9 -10   95.65   89.48   1
   8   9  11  132.64  240.93   1
   8   9  11  388.71  333.64   1
   8   9  11  259.52   91.48   1
  -8  -9 -11  152.05  108.85   1
  -8  -9 -11  200.83  100.07   1
   8  10   0   90.56  293.04   1
   8  10   0  -54.78  402.34   1
   8  10   1  191.11  295.87   1
   8  10   1  140.99  387.85   1
   8  10   2  612.55  317.97   1
   8  10   2  636.97  318.27   1
   8  10   3  838.65  297.16   1
   8  10   3  314.56  340.55   1
   8  10   4  765.15  296.80   1
   8  10   4  551.71  347.93   1
   8  10   5  810.02  291.54   1
   8  10   5  630.00  351.49   1
   8  10   6  224.98  252.91   1
   8  10   6  411.46  249.49   1
   8  10   7  566.49  247.79   1
   8  10   7  620.75  326.70   1
   8  10   7  329.68   90.59   1
  -8 -10  -7  342.42   98.43   1
  -8 -10  -7  341.87   93.10   1
   8  10   8  351.26  242.86   1
   8  10   8  263.44  320.11   1
   8  10   8  112.75   93.10   1
  -8 -10  -8   65.06   85.91   1
   8  10   9   82.00  252.72   1
   8  10   9  267.30  327.23   1
   8  10   9  176.61   85.69   1
  -8 -10  -9  150.34  100.20   1
  -8 -10  -9   75.05   96.54   1
   8  10  10  320.23  289.95   1
   8  10  10  728.78  358.60   1
   8  11   2 1951.16  543.62   1
   8  11   2 2136.13  631.01   1
   8  11   3 1016.46  406.17   1
   8  11   3  723.39  475.03   1
   8  11   4 1073.97  333.49   1
   8  11   4 1026.79  416.39   1
   8  11   5 3517.18  778.46   1
   8  11   5 3033.53  815.32   1
   8  11   6 6413.14 1701.42   1
   8  11   6 8824.60 1727.92   1
   8  11   7 3523.20 1041.39   1
   8  11   7 5636.44 1080.71   1
   8  11   8  637.05  285.28   1
   9  -1   1  919.45  682.20   1
   9  -1   1  672.72  164.97   1
  -9   1  -1 1457.75  509.93   1
  -9   1  -1  854.74  150.22   1
  -9   1  -1  962.31  152.95   1
  -9   1  -2 2493.15  502.45   1
   9  -1   2 1920.76  735.28   1
   9  -1   2 2070.30  374.25   1
  -9   1  -2 2515.77  368.86   1
  -9   1  -2 2676.46  370.93   1
  -9   1  -3  625.19  284.24   1
   9  -1   3    5.21  486.47   1
   9  -1   3  309.15   93.38   1
  -9   1  -3  354.24   82.43   1
  -9   1  -3  330.37   95.17   1
   9  -1   4  135.49  481.00   1
   9  -1   4    3.78   82.36   1
  -9   1  -4 -159.53  326.05   1
  -9   1  -4   20.27   55.51   1
  -9   1  -4   86.30   70.53   1
   9   0   0  884.27  650.14   1
   9   0   0   49.73   77.73   1
  -9   0   0   36.27  410.79   1
  -9   0   0   42.66   55.36   1
  -9   0   0   24.30   77.53   1
   9   0   1  432.40  643.53   1
   9   0   1  281.09   91.63   1
  -9   0  -1   89.37  413.21   1
  -9   0  -1  318.60   83.26   1
  -9   0  -1  389.92   93.65   1
   9   0   2  446.20  488.48   1
   9   0   2  617.90  142.35   1
  -9   0  -2  750.02  344.78   1
  -9   0  -2  865.88  136.12   1
  -9   0  -2  803.23  139.28   1
   9   0   3  603.63  459.40   1
   9   0   3  407.49  106.61   1
  -9   0  -3  298.35  314.07   1
  -9   0  -3  434.69   98.13   1
  -9   0  -3  609.36  110.07   1
   9   0   4  430.92  531.11   1
   9   0   4  339.84   84.95   1
  -9   0  -4  216.26  305.49   1
  -9   0  -4  268.54   82.25   1
  -9   0  -4  410.66   94.39   1
   9   0   5  361.97  441.00   1
   9   0   5  448.26  109.06   1
  -9   0  -5  227.42  315.07   1
  -9   0  -5  487.17  100.67   1
  -9   0  -5  469.76  103.66   1
   9   0   6  316.15  439.42   1
   9   0   6  271.88   81.46   1
  -9   0  -6  495.87  308.79   1
  -9   0  -6  233.91   80.61   1
  -9   0  -6  325.76   85.74   1
   9   0   7  868.17  540.54   1
   9   0   7  -49.69   60.42   1
  -9   0  -7   -3.34   73.01   1
  -9   0  -7   43.27   62.82   1
   9   1   0   40.26  700.01   1
   9   1   0  -46.33   92.54   1
  -9  -1   0   13.36   52.69   1
  -9  -1   0  -50.56   63.31   1
   9   1   1  612.68  539.12   1
   9   1   1  415.50  104.62   1
  -9  -1  -1  264.56   81.85   1
  -9  -1  -1  289.60   92.02   1
   9   1   2 1820.54  278.77   1
  -9  -1  -2 1570.91  268.30   1
  -9  -1  -2 1864.84  278.65   1
   9   1   3 2112.26  683.38   1
   9   1   3 2721.11  386.02   1
  -9  -1  -3 2497.35  383.45   1
  -9  -1  -3 2485.46  384.92   1
   9   1   4   50.61  373.85   1
   9   1   4  118.51   65.50   1
  -9  -1  -4  100.83   63.66   1
  -9  -1  -4  148.66   73.97   1
   9   1   5  361.34  372.69   1
   9   1   5  138.25   68.56   1
  -9  -1  -5  119.21   81.95   1
  -9  -1  -5  189.78   74.08   1
   9   1   6 -124.15  373.14   1
   9   1   6   33.78   72.44   1
  -9  -1  -6  -14.65   72.97   1
  -9  -1  -6  -28.25   76.54   1
   9   1   7 1683.77  558.16   1
   9   1   7 1768.66  276.80   1
  -9  -1  -7 1851.76  278.43   1
  -9  -1  -7 1759.96  277.94   1
   9   1   8 4133.47 1035.75   1
   9   1   8 4582.55  628.25   1
  -9  -1  -8 3777.16  628.14   1
  -9  -1  -8 4435.41  628.66   1
   9   2   0  555.11  554.39   1
   9   2   0  510.01  135.46   1
  -9  -2   0  582.50  112.00   1
  -9  -2   0  596.16  124.56   1
   9   2   1  -20.54  645.32   1
   9   2   1  151.44   88.44   1
  -9  -2  -1  152.58   81.03   1
   9   2   2 1534.16  613.98   1
  -9  -2  -2 2247.32  337.80   1
   9   2   3 4205.02 1288.50   1
   9   2   3 5801.21  803.23   1
  -9  -2  -3 5322.40  803.02   1
  -9  -2  -3 5544.85  803.65   1
   9   2   4 1119.72  502.66   1
   9   2   4 1592.52  251.98   1
  -9  -2  -4 1523.53  248.16   1
  -9  -2  -4 1678.57  249.40   1
   9   2   5  817.86  383.18   1
   9   2   5  639.40  129.23   1
  -9  -2  -5  696.40  130.27   1
  -9  -2  -5  738.82  133.27   1
   9   2   6 1479.76  463.42   1
   9   2   6 1404.69  217.12   1
  -9  -2  -6 1363.69  218.52   1
  -9  -2  -6 1312.23  217.33   1
   9   2   7  212.63  351.87   1
   9   2   7  263.44   76.92   1
  -9  -2  -7  234.73   73.59   1
  -9  -2  -7  146.61   71.90   1
   9   2   8 2530.17  725.33   1
   9   2   8 2848.21  418.65   1
  -9  -2  -8 2375.33  416.44   1
  -9  -2  -8 3067.71  420.14   1
   9   2   9 1128.21  529.94   1
   9   2   9 1802.63  265.39   1
  -9  -2  -9 1581.67  265.43   1
  -9  -2  -9 1678.02  267.19   1
   9   3   0 3606.20  867.67   1
   9   3   0 2959.49  483.00   1
  -9  -3   0 2962.77  475.29   1
  -9  -3   0 3608.94  477.62   1
   9   3   1 4256.57 1191.03   1
   9   3   1 4668.35  724.92   1
  -9  -3  -1 4899.78  718.06   1
  -9  -3  -1 5157.48  718.57   1
   9   3   2  283.02  324.86   1
  -9  -3  -2  216.37   70.69   1
  -9  -3  -2  231.21   77.04   1
   9   3   3  571.25  325.80   1
   9   3   3  455.16  100.90   1
  -9  -3  -3  481.31   98.09   1
  -9  -3  -3  436.45  100.42   1
   9   3   4   23.71  299.43   1
   9   3   4   47.25   61.09   1
  -9  -3  -4   32.50   59.36   1
  -9  -3  -4   22.41   63.36   1
   9   3   5 1566.41  505.73   1
   9   3   5 1658.07  283.59   1
  -9  -3  -5 1938.15  284.26   1
  -9  -3  -5 1940.65  286.14   1
   9   3   6 3712.66  987.78   1
   9   3   6 4167.56  616.91   1
  -9  -3  -6 4347.77  619.42   1
  -9  -3  -6 4188.23  617.05   1
   9   3   7 2194.82  632.95   1
   9   3   7 2521.35  374.83   1
  -9  -3  -7 2283.32  373.04   1
  -9  -3  -7 2599.65  374.94   1
   9   3   8  250.65  303.48   1
   9   3   8    4.25   66.78   1
  -9  -3  -8  -26.39   61.39   1
  -9  -3  -8   32.84   69.25   1
   9   3   9   16.57  311.77   1
   9   3   9   -3.53   76.31   1
  -9  -3  -9  120.41   77.74   1
  -9  -3  -9  -12.21   72.66   1
   9   3  10  365.74  355.47   1
   9   3  10  645.28  131.31   1
  -9  -3 -10  379.56  130.63   1
   9   4   0  874.93  530.04   1
   9   4   0  883.19  181.29   1
  -9  -4   0  978.83  166.97   1
  -9  -4   0  908.24  161.60   1
   9   4   1 1253.96  594.13   1
  -9  -4  -1 1522.87  251.46   1
  -9  -4  -1 1744.28  258.20   1
   9   4   2  820.46  424.41   1
  -9  -4  -2 1165.03  188.94   1
  -9  -4  -2 1187.17  196.38   1
   9   4   3   14.96  287.73   1
   9   4   3   45.72   63.08   1
  -9  -4  -3   -2.93   57.57   1
   9   4   4  119.53  283.37   1
  -9  -4  -4    7.61   60.77   1
  -9  -4  -4   54.87   76.88   1
   9   4   5  333.45  288.54   1
   9   4   5   69.61   77.14   1
  -9  -4  -5  161.42   74.14   1
  -9  -4  -5  243.13   84.10   1
   9   4   6  375.43  285.56   1
   9   4   6  241.26   69.82   1
  -9  -4  -6  204.71   78.74   1
  -9  -4  -6  182.08   72.72   1
   9   4   7   94.88  278.91   1
   9   4   7   52.79   64.27   1
  -9  -4  -7   58.80   67.66   1
  -9  -4  -7   40.81   75.86   1
   9   4   8  254.49  290.20   1
   9   4   8  221.83   82.70   1
  -9  -4  -8  336.39   93.54   1
  -9  -4  -8  200.76   85.21   1
   9   4   9  384.08  347.62   1
   9   4   9  962.99  156.79   1
  -9  -4  -9  730.16  168.04   1
  -9  -4  -9  871.50  156.52   1
   9   4  10  315.72  305.32   1
   9   4  10  113.16   81.32   1
  -9  -4 -10   50.17   78.46   1
  -9  -4 -10   70.66   80.13   1
   9   5   0  470.77  402.64   1
   9   5   0  508.19  477.80   1
  -9  -5   0  355.41   86.22   1
  -9  -5   0  314.22   98.26   1
   9   5   1 1461.88  573.69   1
  -9  -5  -1 1367.02  233.68   1
  -9  -5  -1 1547.59  233.47   1
   9   5   2 1009.97  476.52   1
  -9  -5  -2 1142.46  207.21   1
  -9  -5  -2 1370.29  208.29   1
   9   5   3  322.49  319.86   1
   9   5   3  224.10   90.54   1
  -9  -5  -3  205.97   88.67   1
  -9  -5  -3  289.89   90.93   1
   9   5   4  113.25  319.63   1
   9   5   4   56.76   63.45   1
  -9  -5  -4    1.38   66.56   1
  -9  -5  -4  105.11   77.71   1
   9   5   5  134.72  323.76   1
   9   5   5  257.12   89.28   1
  -9  -5  -5  313.88   84.29   1
  -9  -5  -5  226.93   80.76   1
   9   5   6 2767.93  657.96   1
   9   5   6 2611.25  382.75   1
  -9  -5  -6 2491.62  387.44   1
  -9  -5  -6 2523.21  384.16   1
   9   5   7 4057.73 1064.32   1
   9   5   7 4737.52  665.12   1
  -9  -5  -7 4201.28  669.11   1
  -9  -5  -7 4635.62  665.11   1
   9   5   8 1067.91  373.35   1
   9   5   8 1095.48  168.30   1
  -9  -5  -8  828.47  168.49   1
  -9  -5  -8  831.07  168.87   1
   9   5   9  170.52  295.97   1
   9   5   9   51.59   79.70   1
  -9  -5  -9   71.50   78.89   1
  -9  -5  -9  120.14   78.21   1
   9   5  10   -2.45  298.80   1
   9   5  10   53.81   81.46   1
  -9  -5 -10  175.05  101.09   1
  -9  -5 -10  102.61   82.84   1
   9   6   0   -9.94  368.42   1
   9   6   0  167.44  402.88   1
  -9  -6   0   19.79   78.19   1
   9   6   1 1367.02  470.04   1
   9   6   1 1492.01  494.10   1
  -9  -6  -1 1102.16  209.22   1
  -9  -6  -1 1350.19  209.11   1
   9   6   2 4067.78  818.03   1
   9   6   2 2487.99  820.78   1
  -9  -6  -2 3013.39  498.05   1
  -9  -6  -2 3575.93  496.62   1
   9   6   3  215.38  327.53   1
   9   6   3  326.22  337.03   1
  -9  -6  -3  126.42   86.95   1
  -9  -6  -3  153.86   81.96   1
   9   6   4 1959.39  441.23   1
   9   6   4  815.34  436.25   1
   9   6   4 1291.51  203.22   1
  -9  -6  -4 1083.82  210.84   1
  -9  -6  -4 1272.18  207.65   1
   9   6   5 1473.96  412.43   1
   9   6   5  665.69  400.71   1
   9   6   5 1068.98  180.91   1
  -9  -6  -5  910.22  178.38   1
  -9  -6  -5 1074.12  180.51   1
   9   6   6  728.98  363.82   1
   9   6   6  585.30  349.26   1
   9   6   6  529.34  109.00   1
  -9  -6  -6  549.79  133.68   1
   9   6   7 4098.49  930.57   1
   9   6   7 2439.56  923.08   1
   9   6   7 4070.23  568.39   1
  -9  -6  -7 3358.65  575.54   1
  -9  -6  -7 4122.46  570.84   1
   9   6   8 1478.34  525.23   1
   9   6   8  716.73  453.92   1
   9   6   8 1456.27  226.47   1
  -9  -6  -8 1159.71  228.24   1
  -9  -6  -8 1505.46  228.69   1
   9   6   9  369.14  445.69   1
   9   6   9  604.18  366.39   1
   9   6   9  601.52  126.42   1
  -9  -6  -9  508.89  143.38   1
  -9  -6  -9  726.67  134.84   1
   9   6  10  966.45  581.75   1
   9   6  10 1688.88  523.61   1
   9   6  10 1917.22  281.51   1
  -9  -6 -10 1523.77  295.15   1
  -9  -6 -10 1833.34  279.32   1
   9   7   0 2776.79  524.13   1
   9   7   0 1379.62  629.08   1
  -9  -7   0 1300.80  248.15   1
  -9  -7   0 1568.75  246.16   1
   9   7   1   26.58  331.28   1
   9   7   1  -59.08  406.32   1
  -9  -7  -1   35.34   70.87   1
  -9  -7  -1   50.59   63.71   1
   9   7   2  619.64  336.62   1
   9   7   2  355.25  393.62   1
  -9  -7  -2  283.50  106.60   1
  -9  -7  -2  483.72  107.74   1
   9   7   3  168.84  320.75   1
   9   7   3   49.48  327.21   1
  -9  -7  -3   42.60   79.60   1
  -9  -7  -3  -35.42   82.76   1
   9   7   4 3265.79  610.59   1
   9   7   4 2214.34  608.48   1
   9   7   4 2258.08  350.14   1
  -9  -7  -4 2263.15  356.65   1
  -9  -7  -4 2198.47  349.17   1
   9   7   5 6766.34 1415.32   1
   9   7   5 5245.67 1398.25   1
   9   7   5 7081.26  887.24   1
  -9  -7  -5 4741.66  890.00   1
   9   7   6 1168.76  370.47   1
   9   7   6  988.55  371.35   1
  -9  -7  -6  724.17  168.55   1
  -9  -7  -6  915.05  159.58   1
   9   7   7  -24.71  311.27   1
   9   7   7  199.56  311.68   1
   9   7   7   29.54   76.89   1
  -9  -7  -7  -60.13   94.42   1
  -9  -7  -7   27.19   60.33   1
   9   7   8  253.67  322.80   1
   9   7   8  167.88  319.94   1
   9   7   8   10.75   67.63   1
  -9  -7  -8  -25.40   96.52   1
  -9  -7  -8  -12.32   67.08   1
   9   7   9  694.12  438.31   1
   9   7   9  618.11  360.34   1
   9   7   9  687.06  126.66   1
  -9  -7  -9  461.04  144.47   1
  -9  -7  -9  552.61  133.47   1
   9   7  10 1406.95  559.87   1
   9   7  10 1512.57  503.97   1
   9   7  10 2121.30  299.68   1
  -9  -7 -10 1588.90  319.15   1
  -9  -7 -10 2016.48  303.41   1
   9   8   0 1234.28  417.51   1
   9   8   0 1381.69  535.11   1
   9   8   1  327.53  334.96   1
   9   8   1 -196.11  517.39   1
  -9  -8  -1   67.73   73.09   1
   9   8   2  331.75  350.58   1
   9   8   2  266.48  403.93   1
  -9  -8  -2  133.58   76.98   1
  -9  -8  -2  121.39   74.92   1
   9   8   3  -43.93  280.34   1
   9   8   3 -103.78  314.53   1
  -9  -8  -3  101.64   95.34   1
  -9  -8  -3   61.71   76.08   1
   9   8   4  -21.60  283.05   1
   9   8   4  166.47  304.23   1
  -9  -8  -4   11.21   87.60   1
   9   8   5  274.84  274.56   1
   9   8   5  137.25  307.74   1
   9   8   5  215.58  101.21   1
  -9  -8  -5  248.09  122.71   1
  -9  -8  -5  248.97   86.18   1
   9   8   6  118.22  279.03   1
   9   8   6  133.98  308.05   1
   9   8   6  174.15   94.98   1
  -9  -8  -6  225.41  116.49   1
  -9  -8  -6  269.97   89.96   1
   9   8   7    3.87  265.17   1
   9   8   7  160.07  299.17   1
   9   8   7   19.50   73.21   1
  -9  -8  -7   34.37   76.76   1
   9   8   8   -3.98  276.79   1
   9   8   8   27.22  313.74   1
   9   8   8   68.36   84.77   1
  -9  -8  -8   77.30  106.96   1
  -9  -8  -8   22.82   78.84   1
   9   8   9  318.47  352.93   1
   9   8   9   34.60  314.49   1
   9   8   9   37.98   91.57   1
  -9  -8  -9   -8.93  101.26   1
  -9  -8  -9    0.00   81.75   1
   9   9   1  295.03  256.22   1
   9   9   1  538.40  436.83   1
   9   9   2  286.96  239.32   1
   9   9   2  270.19  426.09   1
   9   9   3  280.79  241.24   1
   9   9   3  240.22  413.32   1
   9   9   4  248.17  253.34   1
   9   9   4   50.43  330.64   1
   9   9   5 1367.91  317.92   1
   9   9   5  561.91  371.65   1
  -9  -9  -5  469.81  144.42   1
  -9  -9  -5  931.63  143.96   1
   9   9   6 1564.07  371.66   1
   9   9   6 1349.47  419.47   1
  -9  -9  -6  826.85  201.53   1
  -9  -9  -6 1305.88  198.20   1
   9   9   7  264.30  262.38   1
   9   9   7  -27.59  321.99   1
   9   9   7  148.55   81.09   1
  -9  -9  -7  171.77  105.23   1
  -9  -9  -7  149.24   96.11   1
   9   9   8   17.50  264.04   1
   9   9   8  154.44  319.78   1
   9   9   8  -11.09   85.68   1
  -9  -9  -8   42.80   90.13   1
  -9  -9  -8   54.38   92.40   1
  10   4   3  533.12  445.99   1
  10   4   4 -169.75  340.19   1
  10   4   4   48.00   99.73   1
 -10  -4  -4   86.26   79.64   1
 -10  -4  -4   60.37   89.17   1
  10   4   5  338.34  344.60   1
  10   5   3   22.80  417.14   1
 -10  -5  -3  257.81   98.79   1
  10   5   4   81.49  339.70   1
  10   5   4  280.00   99.20   1
 -10  -5  -4  356.27  112.49   1
 -10  -5  -4  501.58  111.10   1
  10   5   5  364.00  323.84   1
  10   5   5  117.61   87.67   1
 -10  -5  -5  153.63   76.04   1
 -10  -5  -5  259.59   98.55   1
  10   5   6  917.11  441.71   1
  10   6   4  834.47  411.00   1
  10   6   4  708.41  382.75   1
  10   6   5  936.53  411.59   1
  10   6   5  681.28  393.96   1
   0   0   0
;
_shelx_hkl_checksum   91189

